/*--------------------------------*- C++ -*----------------------------------*\\\\
/*--------------------------------*- C++ -*----------------------------------*\\\\
/*--------------------------------*- C++ -*----------------------------------*\\\\
| =========                 |                                                 |
| \\\\\\\\      /  F ield         | OpenFOAM: The Open Source CFD Toolbox           |
|  \\\\\\\\    /   O peration     | Version:  v2012                                 |
|   \\\\\\\\  /    A nd           | Website:  www.openfoam.com                      |
|    \\\\\\\\/     M anipulation  |                                                 |
\\\\*---------------------------------------------------------------------------*/
FoamFile
{
    version     2.0;
    format      ascii;
    class       dictionary;
    object      blockMeshDict;
}
// * * * * * * * * * * * * * * * * * * * * * * * * * * * * * * * * * * * * * //

scale   0.01;

xmin -1;
xmax 5;
ymin 0;
ymax 0.5;
zmin 0;
zmax 0.1;

vertices
(
    (  -1.0  0.0  $zmin  )
    (  4.0  0.10302962131043915  $zmin  )
    (  4.0  0.6030296213104391  $zmin  )
    (  -1.0  0.5  $zmin  )
    (  -1.0  0.0  $zmax )
    (  4.0  0.10302962131043915  $zmax )
    (  4.0  0.6030296213104391  $zmax )
    (  -1.0  0.5  $zmax )
);

blocks
(
    hex (0 1 2 3 4 5 6 7) (200 20 1) simpleGrading (1 1 1)
);

edges
(
	polyLine 0 1 ((-1.0 0.13441651913919916 0)
(-0.98 0.13441651913919916 0)
(-0.96 0.13441651913919916 0)
(-0.94 0.13441651913919916 0)
(-0.92 0.13441651913919916 0)
(-0.9 0.13441651913919916 0)
(-0.88 0.13441651913919916 0)
(-0.86 0.13441651913919916 0)
(-0.84 0.13441651913919916 0)
(-0.8200000000000001 0.13441651913919916 0)
(-0.8 0.13441651913919916 0)
(-0.78 0.13441651913919916 0)
(-0.76 0.13441651913919916 0)
(-0.74 0.13441651913919916 0)
(-0.72 0.13441651913919916 0)
(-0.7 0.13441651913919916 0)
(-0.6799999999999999 0.13441651913919916 0)
(-0.6599999999999999 0.13441651913919916 0)
(-0.64 0.13441651913919916 0)
(-0.62 0.13441651913919916 0)
(-0.6 0.13441651913919916 0)
(-0.5800000000000001 0.13441651913919916 0)
(-0.56 0.13441651913919916 0)
(-0.54 0.13441651913919916 0)
(-0.52 0.13441651913919916 0)
(-0.5 0.13441651913919916 0)
(-0.48 0.13441651913919916 0)
(-0.45999999999999996 0.13441651913919916 0)
(-0.43999999999999995 0.13441651913919916 0)
(-0.42000000000000004 0.13441651913919916 0)
(-0.4 0.13441651913919916 0)
(-0.38 0.13441651913919916 0)
(-0.36 0.13441651913919916 0)
(-0.33999999999999997 0.13441651913919916 0)
(-0.31999999999999995 0.13441651913919916 0)
(-0.29999999999999993 0.13441651913919916 0)
(-0.28 0.13441651913919916 0)
(-0.26 0.13441651913919916 0)
(-0.24 0.13441651913919916 0)
(-0.21999999999999997 0.13441651913919916 0)
(-0.19999999999999996 0.13441651913919916 0)
(-0.17999999999999994 0.13441651913919916 0)
(-0.16000000000000003 0.13441651913919916 0)
(-0.14 0.13441651913919916 0)
(-0.12 0.13441651913919916 0)
(-0.09999999999999998 0.13441651913919916 0)
(-0.07957790192427062 0.13499355504401608 0)
(-0.059155803848541265 0.1327439541948701 0)
(-0.038733705772811905 0.12766771659176115 0)
(-0.018311607697082552 0.11976484223468935 0)
(0.002110490378646801 0.10903533112365463 0)
(0.022532588454376168 0.09547918325865698 0)
(0.04295468653010551 0.07909639863969645 0)
(0.06337678460583487 0.05988697726677299 0)
(0.08379888268156424 0.03785091913988662 0)
(0.08379888268156424 0.03785091913988662 0)
(0.1005586592178771 0.01719952343832806 0)
(0.11731843575418995 -0.0035706790385152125 0)
(0.1340782122905028 -0.02431621682835912 0)
(0.15083798882681565 -0.04489378884177556 0)
(0.16759776536312848 -0.06516125422335835 0)
(0.18435754189944134 -0.08497861419850117 0)
(0.2011173184357542 -0.10420897912361898 0)
(0.21787709497206703 -0.12271951405985453 0)
(0.2346368715083799 -0.14038235633866072 0)
(0.25139664804469275 -0.15707549878111574 0)
(0.2681564245810056 -0.1726836324700819 0)
(0.2849162011173184 -0.18709894325370516 0)
(0.3016759776536313 -0.20022185647835797 0)
(0.31843575418994413 -0.21196172480673758 0)
(0.33519553072625696 -0.2222374543699723 0)
(0.35195530726256985 -0.23097806492855252 0)
(0.3687150837988827 -0.23812318017273862 0)
(0.3854748603351955 -0.2436234447756669 0)
(0.4022346368715084 -0.2474408653183319 0)
(0.41899441340782123 -0.24954907273148552 0)
(0.43575418994413406 -0.2499335044416189 0)
(0.4525139664804469 -0.24859150496284246 0)
(0.4692737430167598 -0.24553234423981943 0)
(0.4860335195530726 -0.2407771536150479 0)
(0.5027932960893855 -0.23435877986280154 0)
(0.5195530726256983 -0.22632155829799833 0)
(0.5363128491620112 -0.2167210065272618 0)
(0.553072625698324 -0.20562344095760904 0)
(0.5698324022346368 -0.19310551871175452 0)
(0.5865921787709497 -0.17925370811427851 0)
(0.6033519553072626 -0.1641636914063108 0)
(0.6201117318435754 -0.14793970381451302 0)
(0.6368715083798883 -0.13069381353978324 0)
(0.6536312849162011 -0.11254514763920555 0)
(0.6703910614525139 -0.09361906914851174 0)
(0.6871508379888268 -0.07404631112913364 0)
(0.7039106145251397 -0.05396207362147057 0)
(0.7206703910614525 -0.03350508974222177 0)
(0.7374301675977654 -0.012816667376774577 0)
(0.7541899441340782 0.007960286913780383 0)
(0.770949720670391 0.02868225502858688 0)
(0.7877094972067039 0.04920609868720967 0)
(0.8044692737430168 0.06939004816618671 0)
(0.8212290502793296 0.08909468158219037 0)
(0.8379888268156425 0.10818388795733733 0)
(0.8547486033519552 0.12652580741421227 0)
(0.8715083798882681 0.14399374200615328 0)
(0.888268156424581 0.1604670308911786 0)
(0.9050279329608938 0.17583188380423911 0)
(0.9217877094972067 0.18998216707053464 0)
(0.9385474860335196 0.2028201367304571 0)
(0.9553072625698323 0.21425711371205605 0)
(0.9720670391061452 0.2242140963872307 0)
(0.9888268156424581 0.23262230628037694 0)
(1.005586592178771 0.23942366315997535 0)
(1.0223463687150838 0.24457118623139387 0)
(1.0391061452513966 0.24802931865964162 0)
(1.0558659217877095 0.24977417318041267 0)
(1.0726256983240223 0.2497936971028463 0)
(1.089385474860335 0.2480877555642369 0)
(1.106145251396648 0.2446681324616066 0)
(1.1229050279329609 0.23955844905370538 0)
(1.1396648044692737 0.23279400079570065 0)
(1.1564245810055866 0.22442151353363074 0)
(1.1731843575418994 0.21449882074272467 0)
(1.1899441340782122 0.20309446403908338 0)
(1.2067039106145252 0.19028721972421359 0)
(1.223463687150838 0.17616555463283887 0)
(1.2402234636871508 0.16082701504274807 0)
(1.2569832402234637 0.14437755286783044 0)
(1.2737430167597765 0.126930793788657 0)
(1.2905027932960893 0.1086072523760408 0)
(1.3072625698324023 0.08953349962916292 0)
(1.324022346368715 0.06984128867854272 0)
(1.3407821229050279 0.049666644693113354 0)
(1.3575418994413408 0.029148925277927697 0)
(1.3743016759776536 0.008429857852857029 0)
(1.3910614525139664 -0.012347439338358003 0)
(1.4078212290502794 -0.03303944582625383 0)
(1.4245810055865922 -0.05350323029219123 0)
(1.441340782122905 -0.07359743787530852 0)
(1.458100558659218 -0.09318326658999199 0)
(1.4748603351955307 -0.11212542610920312 0)
(1.4916201117318435 -0.1302930722908078 0)
(1.5083798882681565 -0.147560710991606 0)
(1.5251396648044693 -0.16380906492591055 0)
(1.541899441340782 -0.17892589758080105 0)
(1.558659217877095 -0.19280678849679872 0)
(1.5754189944134078 -0.20535585455866923 0)
(1.5921787709497206 -0.21648641231399085 0)
(1.6089385474860336 -0.22612157674447975 0)
(1.6256983240223464 -0.23419479235402385 0)
(1.6424581005586592 -0.24065029290490256 0)
(1.659217877094972 -0.2454434866265328 0)
(1.675977653631285 -0.24854126423589148 0)
(1.6927374301675977 -0.2499222276419421 0)
(1.7094972067039105 -0.24957683775427633 0)
(1.7262569832402235 -0.2475074803749727 0)
(1.7430167597765363 -0.24372844971852087 0)
(1.759776536312849 -0.2382658496736481 0)
(1.776536312849162 -0.231157413489088 0)
(1.7932960893854748 -0.22245224312882445 0)
(1.8100558659217876 -0.2122104700972281 0)
(1.8268156424581006 -0.20050284007695945 0)
(1.8435754189944134 -0.1874102242487769 0)
(1.8603351955307261 -0.17302306066883724 0)
(1.8770949720670391 -0.15744072956221195 0)
(1.893854748603352 -0.1407708668478171 0)
(1.9106145251396647 -0.12312862063662432 0)
(1.9273743016759777 -0.10463585583893982 0)
(1.9441340782122905 -0.08542031237497703 0)
(1.9608938547486032 -0.06561472280343036 0)
(1.9776536312849162 -0.04535589546309134 0)
(1.994413407821229 -0.024783769460761006 0)
(2.011173184357542 -0.004040448033185636 0)
(2.0279329608938546 0.016730783039865776 0)
(2.0446927374301676 0.037386445191018025 0)
(2.0614525139664805 0.057783858152393 0)
(2.078212290502793 0.07778212552841371 0)
(2.094972067039106 0.09724310804640067 0)
(2.111731843575419 0.11603237776216485 0)
(2.1284916201117317 0.13402014662937492 0)
(2.1452513966480447 0.15108216301854066 0)
(2.1620111731843576 0.1671005699928506 0)
(2.17877094972067 0.18196471941227665 0)
(2.195530726256983 0.19557193624246721 0)
(2.212290502793296 0.20782822778891555 0)
(2.2290502793296088 0.2186489329573297 0)
(2.2458100558659218 0.22795930705539522 0)
(2.2625698324022347 0.23569503809637254 0)
(2.2793296089385473 0.24180269103813706 0)
(2.2960893854748603 0.246240076889048 0)
(2.3128491620111733 0.24897654413102507 0)
(2.329608938547486 0.24999319044681173 0)
(2.346368715083799 0.24928299328890452 0)
(2.363128491620112 0.24685085838823545 0)
(2.3798882681564244 0.24271358586753133 0)
(2.3966480446927374 0.23689975419342346 0)
(2.4134078212290504 0.22944952276891661 0)
(2.430167597765363 0.22041435452982105 0)
(2.446927374301676 0.20985666046132975 0)
(2.463687150837989 0.197849368490267 0)
(2.4804469273743015 0.18447541973090867 0)
(2.4972067039106145 0.16982719556408832 0)
(2.5139664804469275 0.15400587950707917 0)
(2.53072625698324 0.13712075828216974 0)
(2.547486033519553 0.1192884669118479 0)
(2.564245810055866 0.1006321830551487 0)
(2.5810055865921786 0.08128077615033147 0)
(2.5977653631284916 0.061367917241236365 0)
(2.6145251396648046 0.04103115563626058 0)
(2.631284916201117 0.0204109687779735 0)
(2.64804469273743 -0.0003502081135345919 0)
(2.664804469273743 -0.021108965920769985 0)
(2.6815642458100557 -0.04172191223621367 0)
(2.6983240223463687 -0.06204666185427429 0)
(2.7150837988826817 -0.08194282030592735 0)
(2.7318435754189943 -0.10127295364222204 0)
(2.7486033519553073 -0.1199035377678118 0)
(2.7653631284916202 -0.13770588076692492 0)
(2.782122905027933 -0.15455701185075862 0)
(2.798882681564246 -0.1703405307858334 0)
(2.815642458100559 -0.18494741193582553 0)
(2.8324022346368714 -0.19827675736291575 0)
(2.8491620111731844 -0.21023649378655546 0)
(2.8659217877094973 -0.22074400858536317 0)
(2.88268156424581 -0.2297267204489331 0)
(2.899441340782123 -0.23712258073774128 0)
(2.916201117318436 -0.24288050208797046 0)
(2.9329608938547485 -0.24696071130064695 0)
(2.9537430167597765 -0.24677187440821577 0)
(2.9745251396648045 -0.2466068406513006 0)
(2.9953072625698325 -0.24646561002990133 0)
(3.0160893854748605 -0.24634818254401808 0)
(3.036871508379888 -0.24625455819365077 0)
(3.057653631284916 -0.24618473697879945 0)
(3.078435754189944 -0.24613871889946407 0)
(3.099217877094972 -0.2461165039556447 0)
(3.12 -0.24611809214734123 0)
(3.12 -0.24611809214734123 0)
(3.14 -0.24611809214734123 0)
(3.16 -0.24611809214734123 0)
(3.1799999999999997 -0.24611809214734123 0)
(3.2 -0.24611809214734123 0)
(3.2199999999999998 -0.24611809214734123 0)
(3.24 -0.24611809214734123 0)
(3.26 -0.24611809214734123 0)
(3.2800000000000002 -0.24611809214734123 0)
(3.3 -0.24611809214734123 0)
(3.32 -0.24611809214734123 0)
(3.34 -0.24611809214734123 0)
(3.36 -0.24611809214734123 0)
(3.38 -0.24611809214734123 0)
(3.4 -0.24611809214734123 0)
(3.42 -0.24611809214734123 0)
(3.44 -0.24611809214734123 0)
(3.46 -0.24611809214734123 0)
(3.48 -0.24611809214734123 0)
(3.5 -0.24611809214734123 0)
(3.52 -0.24611809214734123 0)
(3.54 -0.24611809214734123 0)
(3.56 -0.24611809214734123 0)
(3.58 -0.24611809214734123 0)
(3.6 -0.24611809214734123 0)
(3.62 -0.24611809214734123 0)
(3.64 -0.24611809214734123 0)
(3.66 -0.24611809214734123 0)
(3.68 -0.24611809214734123 0)
(3.7 -0.24611809214734123 0)
(3.7199999999999998 -0.24611809214734123 0)
(3.74 -0.24611809214734123 0)
(3.76 -0.24611809214734123 0)
(3.78 -0.24611809214734123 0)
(3.8 -0.24611809214734123 0)
(3.82 -0.24611809214734123 0)
(3.84 -0.24611809214734123 0)
(3.86 -0.24611809214734123 0)
(3.88 -0.24611809214734123 0)
(3.9 -0.24611809214734123 0)
(3.92 -0.24611809214734123 0)
(3.94 -0.24611809214734123 0)
(3.96 -0.24611809214734123 0)
(3.98 -0.24611809214734123 0)
(4.0 -0.24611809214734123 0)
)
	polyLine 4 5 ((-1.0 0.13441651913919916 0.1)
(-0.98 0.13441651913919916 0.1)
(-0.96 0.13441651913919916 0.1)
(-0.94 0.13441651913919916 0.1)
(-0.92 0.13441651913919916 0.1)
(-0.9 0.13441651913919916 0.1)
(-0.88 0.13441651913919916 0.1)
(-0.86 0.13441651913919916 0.1)
(-0.84 0.13441651913919916 0.1)
(-0.8200000000000001 0.13441651913919916 0.1)
(-0.8 0.13441651913919916 0.1)
(-0.78 0.13441651913919916 0.1)
(-0.76 0.13441651913919916 0.1)
(-0.74 0.13441651913919916 0.1)
(-0.72 0.13441651913919916 0.1)
(-0.7 0.13441651913919916 0.1)
(-0.6799999999999999 0.13441651913919916 0.1)
(-0.6599999999999999 0.13441651913919916 0.1)
(-0.64 0.13441651913919916 0.1)
(-0.62 0.13441651913919916 0.1)
(-0.6 0.13441651913919916 0.1)
(-0.5800000000000001 0.13441651913919916 0.1)
(-0.56 0.13441651913919916 0.1)
(-0.54 0.13441651913919916 0.1)
(-0.52 0.13441651913919916 0.1)
(-0.5 0.13441651913919916 0.1)
(-0.48 0.13441651913919916 0.1)
(-0.45999999999999996 0.13441651913919916 0.1)
(-0.43999999999999995 0.13441651913919916 0.1)
(-0.42000000000000004 0.13441651913919916 0.1)
(-0.4 0.13441651913919916 0.1)
(-0.38 0.13441651913919916 0.1)
(-0.36 0.13441651913919916 0.1)
(-0.33999999999999997 0.13441651913919916 0.1)
(-0.31999999999999995 0.13441651913919916 0.1)
(-0.29999999999999993 0.13441651913919916 0.1)
(-0.28 0.13441651913919916 0.1)
(-0.26 0.13441651913919916 0.1)
(-0.24 0.13441651913919916 0.1)
(-0.21999999999999997 0.13441651913919916 0.1)
(-0.19999999999999996 0.13441651913919916 0.1)
(-0.17999999999999994 0.13441651913919916 0.1)
(-0.16000000000000003 0.13441651913919916 0.1)
(-0.14 0.13441651913919916 0.1)
(-0.12 0.13441651913919916 0.1)
(-0.09999999999999998 0.13441651913919916 0.1)
(-0.07957790192427062 0.13499355504401608 0.1)
(-0.059155803848541265 0.1327439541948701 0.1)
(-0.038733705772811905 0.12766771659176115 0.1)
(-0.018311607697082552 0.11976484223468935 0.1)
(0.002110490378646801 0.10903533112365463 0.1)
(0.022532588454376168 0.09547918325865698 0.1)
(0.04295468653010551 0.07909639863969645 0.1)
(0.06337678460583487 0.05988697726677299 0.1)
(0.08379888268156424 0.03785091913988662 0.1)
(0.08379888268156424 0.03785091913988662 0.1)
(0.1005586592178771 0.01719952343832806 0.1)
(0.11731843575418995 -0.0035706790385152125 0.1)
(0.1340782122905028 -0.02431621682835912 0.1)
(0.15083798882681565 -0.04489378884177556 0.1)
(0.16759776536312848 -0.06516125422335835 0.1)
(0.18435754189944134 -0.08497861419850117 0.1)
(0.2011173184357542 -0.10420897912361898 0.1)
(0.21787709497206703 -0.12271951405985453 0.1)
(0.2346368715083799 -0.14038235633866072 0.1)
(0.25139664804469275 -0.15707549878111574 0.1)
(0.2681564245810056 -0.1726836324700819 0.1)
(0.2849162011173184 -0.18709894325370516 0.1)
(0.3016759776536313 -0.20022185647835797 0.1)
(0.31843575418994413 -0.21196172480673758 0.1)
(0.33519553072625696 -0.2222374543699723 0.1)
(0.35195530726256985 -0.23097806492855252 0.1)
(0.3687150837988827 -0.23812318017273862 0.1)
(0.3854748603351955 -0.2436234447756669 0.1)
(0.4022346368715084 -0.2474408653183319 0.1)
(0.41899441340782123 -0.24954907273148552 0.1)
(0.43575418994413406 -0.2499335044416189 0.1)
(0.4525139664804469 -0.24859150496284246 0.1)
(0.4692737430167598 -0.24553234423981943 0.1)
(0.4860335195530726 -0.2407771536150479 0.1)
(0.5027932960893855 -0.23435877986280154 0.1)
(0.5195530726256983 -0.22632155829799833 0.1)
(0.5363128491620112 -0.2167210065272618 0.1)
(0.553072625698324 -0.20562344095760904 0.1)
(0.5698324022346368 -0.19310551871175452 0.1)
(0.5865921787709497 -0.17925370811427851 0.1)
(0.6033519553072626 -0.1641636914063108 0.1)
(0.6201117318435754 -0.14793970381451302 0.1)
(0.6368715083798883 -0.13069381353978324 0.1)
(0.6536312849162011 -0.11254514763920555 0.1)
(0.6703910614525139 -0.09361906914851174 0.1)
(0.6871508379888268 -0.07404631112913364 0.1)
(0.7039106145251397 -0.05396207362147057 0.1)
(0.7206703910614525 -0.03350508974222177 0.1)
(0.7374301675977654 -0.012816667376774577 0.1)
(0.7541899441340782 0.007960286913780383 0.1)
(0.770949720670391 0.02868225502858688 0.1)
(0.7877094972067039 0.04920609868720967 0.1)
(0.8044692737430168 0.06939004816618671 0.1)
(0.8212290502793296 0.08909468158219037 0.1)
(0.8379888268156425 0.10818388795733733 0.1)
(0.8547486033519552 0.12652580741421227 0.1)
(0.8715083798882681 0.14399374200615328 0.1)
(0.888268156424581 0.1604670308911786 0.1)
(0.9050279329608938 0.17583188380423911 0.1)
(0.9217877094972067 0.18998216707053464 0.1)
(0.9385474860335196 0.2028201367304571 0.1)
(0.9553072625698323 0.21425711371205605 0.1)
(0.9720670391061452 0.2242140963872307 0.1)
(0.9888268156424581 0.23262230628037694 0.1)
(1.005586592178771 0.23942366315997535 0.1)
(1.0223463687150838 0.24457118623139387 0.1)
(1.0391061452513966 0.24802931865964162 0.1)
(1.0558659217877095 0.24977417318041267 0.1)
(1.0726256983240223 0.2497936971028463 0.1)
(1.089385474860335 0.2480877555642369 0.1)
(1.106145251396648 0.2446681324616066 0.1)
(1.1229050279329609 0.23955844905370538 0.1)
(1.1396648044692737 0.23279400079570065 0.1)
(1.1564245810055866 0.22442151353363074 0.1)
(1.1731843575418994 0.21449882074272467 0.1)
(1.1899441340782122 0.20309446403908338 0.1)
(1.2067039106145252 0.19028721972421359 0.1)
(1.223463687150838 0.17616555463283887 0.1)
(1.2402234636871508 0.16082701504274807 0.1)
(1.2569832402234637 0.14437755286783044 0.1)
(1.2737430167597765 0.126930793788657 0.1)
(1.2905027932960893 0.1086072523760408 0.1)
(1.3072625698324023 0.08953349962916292 0.1)
(1.324022346368715 0.06984128867854272 0.1)
(1.3407821229050279 0.049666644693113354 0.1)
(1.3575418994413408 0.029148925277927697 0.1)
(1.3743016759776536 0.008429857852857029 0.1)
(1.3910614525139664 -0.012347439338358003 0.1)
(1.4078212290502794 -0.03303944582625383 0.1)
(1.4245810055865922 -0.05350323029219123 0.1)
(1.441340782122905 -0.07359743787530852 0.1)
(1.458100558659218 -0.09318326658999199 0.1)
(1.4748603351955307 -0.11212542610920312 0.1)
(1.4916201117318435 -0.1302930722908078 0.1)
(1.5083798882681565 -0.147560710991606 0.1)
(1.5251396648044693 -0.16380906492591055 0.1)
(1.541899441340782 -0.17892589758080105 0.1)
(1.558659217877095 -0.19280678849679872 0.1)
(1.5754189944134078 -0.20535585455866923 0.1)
(1.5921787709497206 -0.21648641231399085 0.1)
(1.6089385474860336 -0.22612157674447975 0.1)
(1.6256983240223464 -0.23419479235402385 0.1)
(1.6424581005586592 -0.24065029290490256 0.1)
(1.659217877094972 -0.2454434866265328 0.1)
(1.675977653631285 -0.24854126423589148 0.1)
(1.6927374301675977 -0.2499222276419421 0.1)
(1.7094972067039105 -0.24957683775427633 0.1)
(1.7262569832402235 -0.2475074803749727 0.1)
(1.7430167597765363 -0.24372844971852087 0.1)
(1.759776536312849 -0.2382658496736481 0.1)
(1.776536312849162 -0.231157413489088 0.1)
(1.7932960893854748 -0.22245224312882445 0.1)
(1.8100558659217876 -0.2122104700972281 0.1)
(1.8268156424581006 -0.20050284007695945 0.1)
(1.8435754189944134 -0.1874102242487769 0.1)
(1.8603351955307261 -0.17302306066883724 0.1)
(1.8770949720670391 -0.15744072956221195 0.1)
(1.893854748603352 -0.1407708668478171 0.1)
(1.9106145251396647 -0.12312862063662432 0.1)
(1.9273743016759777 -0.10463585583893982 0.1)
(1.9441340782122905 -0.08542031237497703 0.1)
(1.9608938547486032 -0.06561472280343036 0.1)
(1.9776536312849162 -0.04535589546309134 0.1)
(1.994413407821229 -0.024783769460761006 0.1)
(2.011173184357542 -0.004040448033185636 0.1)
(2.0279329608938546 0.016730783039865776 0.1)
(2.0446927374301676 0.037386445191018025 0.1)
(2.0614525139664805 0.057783858152393 0.1)
(2.078212290502793 0.07778212552841371 0.1)
(2.094972067039106 0.09724310804640067 0.1)
(2.111731843575419 0.11603237776216485 0.1)
(2.1284916201117317 0.13402014662937492 0.1)
(2.1452513966480447 0.15108216301854066 0.1)
(2.1620111731843576 0.1671005699928506 0.1)
(2.17877094972067 0.18196471941227665 0.1)
(2.195530726256983 0.19557193624246721 0.1)
(2.212290502793296 0.20782822778891555 0.1)
(2.2290502793296088 0.2186489329573297 0.1)
(2.2458100558659218 0.22795930705539522 0.1)
(2.2625698324022347 0.23569503809637254 0.1)
(2.2793296089385473 0.24180269103813706 0.1)
(2.2960893854748603 0.246240076889048 0.1)
(2.3128491620111733 0.24897654413102507 0.1)
(2.329608938547486 0.24999319044681173 0.1)
(2.346368715083799 0.24928299328890452 0.1)
(2.363128491620112 0.24685085838823545 0.1)
(2.3798882681564244 0.24271358586753133 0.1)
(2.3966480446927374 0.23689975419342346 0.1)
(2.4134078212290504 0.22944952276891661 0.1)
(2.430167597765363 0.22041435452982105 0.1)
(2.446927374301676 0.20985666046132975 0.1)
(2.463687150837989 0.197849368490267 0.1)
(2.4804469273743015 0.18447541973090867 0.1)
(2.4972067039106145 0.16982719556408832 0.1)
(2.5139664804469275 0.15400587950707917 0.1)
(2.53072625698324 0.13712075828216974 0.1)
(2.547486033519553 0.1192884669118479 0.1)
(2.564245810055866 0.1006321830551487 0.1)
(2.5810055865921786 0.08128077615033147 0.1)
(2.5977653631284916 0.061367917241236365 0.1)
(2.6145251396648046 0.04103115563626058 0.1)
(2.631284916201117 0.0204109687779735 0.1)
(2.64804469273743 -0.0003502081135345919 0.1)
(2.664804469273743 -0.021108965920769985 0.1)
(2.6815642458100557 -0.04172191223621367 0.1)
(2.6983240223463687 -0.06204666185427429 0.1)
(2.7150837988826817 -0.08194282030592735 0.1)
(2.7318435754189943 -0.10127295364222204 0.1)
(2.7486033519553073 -0.1199035377678118 0.1)
(2.7653631284916202 -0.13770588076692492 0.1)
(2.782122905027933 -0.15455701185075862 0.1)
(2.798882681564246 -0.1703405307858334 0.1)
(2.815642458100559 -0.18494741193582553 0.1)
(2.8324022346368714 -0.19827675736291575 0.1)
(2.8491620111731844 -0.21023649378655546 0.1)
(2.8659217877094973 -0.22074400858536317 0.1)
(2.88268156424581 -0.2297267204489331 0.1)
(2.899441340782123 -0.23712258073774128 0.1)
(2.916201117318436 -0.24288050208797046 0.1)
(2.9329608938547485 -0.24696071130064695 0.1)
(2.9537430167597765 -0.24677187440821577 0.1)
(2.9745251396648045 -0.2466068406513006 0.1)
(2.9953072625698325 -0.24646561002990133 0.1)
(3.0160893854748605 -0.24634818254401808 0.1)
(3.036871508379888 -0.24625455819365077 0.1)
(3.057653631284916 -0.24618473697879945 0.1)
(3.078435754189944 -0.24613871889946407 0.1)
(3.099217877094972 -0.2461165039556447 0.1)
(3.12 -0.24611809214734123 0.1)
(3.12 -0.24611809214734123 0.1)
(3.14 -0.24611809214734123 0.1)
(3.16 -0.24611809214734123 0.1)
(3.1799999999999997 -0.24611809214734123 0.1)
(3.2 -0.24611809214734123 0.1)
(3.2199999999999998 -0.24611809214734123 0.1)
(3.24 -0.24611809214734123 0.1)
(3.26 -0.24611809214734123 0.1)
(3.2800000000000002 -0.24611809214734123 0.1)
(3.3 -0.24611809214734123 0.1)
(3.32 -0.24611809214734123 0.1)
(3.34 -0.24611809214734123 0.1)
(3.36 -0.24611809214734123 0.1)
(3.38 -0.24611809214734123 0.1)
(3.4 -0.24611809214734123 0.1)
(3.42 -0.24611809214734123 0.1)
(3.44 -0.24611809214734123 0.1)
(3.46 -0.24611809214734123 0.1)
(3.48 -0.24611809214734123 0.1)
(3.5 -0.24611809214734123 0.1)
(3.52 -0.24611809214734123 0.1)
(3.54 -0.24611809214734123 0.1)
(3.56 -0.24611809214734123 0.1)
(3.58 -0.24611809214734123 0.1)
(3.6 -0.24611809214734123 0.1)
(3.62 -0.24611809214734123 0.1)
(3.64 -0.24611809214734123 0.1)
(3.66 -0.24611809214734123 0.1)
(3.68 -0.24611809214734123 0.1)
(3.7 -0.24611809214734123 0.1)
(3.7199999999999998 -0.24611809214734123 0.1)
(3.74 -0.24611809214734123 0.1)
(3.76 -0.24611809214734123 0.1)
(3.78 -0.24611809214734123 0.1)
(3.8 -0.24611809214734123 0.1)
(3.82 -0.24611809214734123 0.1)
(3.84 -0.24611809214734123 0.1)
(3.86 -0.24611809214734123 0.1)
(3.88 -0.24611809214734123 0.1)
(3.9 -0.24611809214734123 0.1)
(3.92 -0.24611809214734123 0.1)
(3.94 -0.24611809214734123 0.1)
(3.96 -0.24611809214734123 0.1)
(3.98 -0.24611809214734123 0.1)
(4.0 -0.24611809214734123 0.1)
)
	polyLine 3 2 ((-1.0 0.6344165191391992 0)
(-0.98 0.6364709939427212 0)
(-0.96 0.6385254687462433 0)
(-0.94 0.6405799435497654 0)
(-0.92 0.6426344183532875 0)
(-0.9 0.6446888931568096 0)
(-0.88 0.6467433679603316 0)
(-0.86 0.6487978427638537 0)
(-0.84 0.6508523175673757 0)
(-0.8200000000000001 0.6529067923708978 0)
(-0.8 0.6549612671744199 0)
(-0.78 0.657015741977942 0)
(-0.76 0.659070216781464 0)
(-0.74 0.6611246915849861 0)
(-0.72 0.6631791663885082 0)
(-0.7 0.6652336411920302 0)
(-0.6799999999999999 0.6672881159955524 0)
(-0.6599999999999999 0.6693425907990744 0)
(-0.64 0.6713970656025965 0)
(-0.62 0.6734515404061185 0)
(-0.6 0.6755060152096406 0)
(-0.5800000000000001 0.6775604900131627 0)
(-0.56 0.6796149648166847 0)
(-0.54 0.6816694396202069 0)
(-0.52 0.6837239144237289 0)
(-0.5 0.685778389227251 0)
(-0.48 0.687832864030773 0)
(-0.45999999999999996 0.6898873388342951 0)
(-0.43999999999999995 0.6919418136378173 0)
(-0.42000000000000004 0.6939962884413393 0)
(-0.4 0.6960507632448614 0)
(-0.38 0.6981052380483834 0)
(-0.36 0.7001597128519055 0)
(-0.33999999999999997 0.7022141876554275 0)
(-0.31999999999999995 0.7042686624589497 0)
(-0.29999999999999993 0.7063231372624718 0)
(-0.28 0.7083776120659938 0)
(-0.26 0.7104320868695159 0)
(-0.24 0.7124865616730379 0)
(-0.21999999999999997 0.71454103647656 0)
(-0.19999999999999996 0.7165955112800821 0)
(-0.17999999999999994 0.7186499860836042 0)
(-0.16000000000000003 0.7207044608871263 0)
(-0.14 0.7227589356906483 0)
(-0.12 0.7248134104941704 0)
(-0.09999999999999998 0.7268678852976924 0)
(-0.07957790192427062 0.7294639769247127 0)
(-0.059155803848541265 0.7269480156534925 0)
(-0.038733705772811905 0.7193200014840319 0)
(-0.018311607697082552 0.7065799344163313 0)
(0.002110490378646801 0.6887278144503903 0)
(0.022532588454376168 0.6657636415862089 0)
(0.04295468653010551 0.6376874158237874 0)
(0.06337678460583487 0.6044991371631255 0)
(0.08379888268156424 0.5661988056042234 0)
(0.08379888268156424 0.5661988056042234 0)
(0.1005586592178771 0.530080852313553 0)
(0.11731843575418995 0.49375511366917757 0)
(0.1340782122905028 0.4574725119645928 0)
(0.15083798882681565 0.42148367152220606 0)
(0.16759776536312848 0.3860371874902797 0)
(0.18435754189944134 0.35137790865652063 0)
(0.2011173184357542 0.3177452461398882 0)
(0.21787709497206703 0.2853715196434353 0)
(0.2346368715083799 0.2544803526915447 0)
(0.25139664804469275 0.2252851279365613 0)
(0.2681564245810056 0.19798751320488117 0)
(0.2849162011173184 0.1727760684639279 0)
(0.3016759776536313 0.1498249433324792 0)
(0.31843575418994413 0.1292926741313697 0)
(0.33519553072625696 0.11132108878401886 0)
(0.35195530726256985 0.09603432713124993 0)
(0.3687150837988827 0.08353798342763796 0)
(0.3854748603351955 0.07391837694264392 0)
(0.4022346368715084 0.06724195570490571 0)
(0.41899441340782123 0.06355483750835778 0)
(0.43575418994413406 0.06288249135070789 0)
(0.4525139664804469 0.06522956150475534 0)
(0.4692737430167598 0.0705798354377884 0)
(0.4860335195530726 0.07889635580066007 0)
(0.5027932960893855 0.09012167571297014 0)
(0.5195530726256983 0.10417825558095573 0)
(0.5363128491620112 0.12096899870704653 0)
(0.553072625698324 0.1403779219913271 0)
(0.5698324022346368 0.16227095709199568 0)
(0.5865921787709497 0.1864968765107542 0)
(0.6033519553072626 0.21288833820613406 0)
(0.6201117318435754 0.2412630415190315 0)
(0.6368715083798883 0.271424986425821 0)
(0.6536312849162011 0.30316582742067827 0)
(0.6703910614525139 0.3362663126750891 0)
(0.6871508379888268 0.37049779853345866 0)
(0.7039106145251397 0.4056238288833473 0)
(0.7206703910614525 0.44140176849073887 0)
(0.7374301675977654 0.47758447901797413 0)
(0.7541899441340782 0.5139220261471508 0)
(0.770949720670391 0.5501634060169317 0)
(0.7877094972067039 0.5860582790472915 0)
(0.8044692737430168 0.6213586991756961 0)
(0.8212290502793296 0.6558208265599141 0)
(0.8379888268156425 0.689206611916857 0)
(0.8547486033519552 0.7212854408627695 0)
(0.8715083798882681 0.7518357268963958 0)
(0.888268156424581 0.7806464420214835 0)
(0.9050279329608938 0.8075185744357619 0)
(0.9217877094972067 0.8322665032173138 0)
(0.9385474860335196 0.8547192805126096 0)
(0.9553072625698323 0.8747218123694125 0)
(0.9720670391061452 0.8921359300578761 0)
(0.9888268156424581 0.9068413444796185 0)
(1.005586592178771 0.9187364770721327 0)
(1.0223463687150838 0.9277391614690091 0)
(1.0391061452513966 0.9337872110692103 0)
(1.0558659217877095 0.9368388485948748 0)
(1.0726256983240223 0.9368729946704573 0)
(1.089385474860335 0.9338894134298218 0)
(1.106145251396648 0.9279087141455029 0)
(1.1229050279329609 0.9189722088688759 0)
(1.1396648044692737 0.9071416270645993 0)
(1.1564245810055866 0.8924986892105078 0)
(1.1731843575418994 0.8751445423083413 0)
(1.1899441340782122 0.8551990612045544 0)
(1.2067039106145252 0.8328000205473769 0)
(1.223463687150838 0.8081021430998845 0)
(1.2402234636871508 0.7812760309829108 0)
(1.2569832402234637 0.7525069872303141 0)
(1.2737430167597765 0.7219937357967747 0)
(1.2905027932960893 0.6899470488597466 0)
(1.3072625698324023 0.6565882908975648 0)
(1.324022346368715 0.6221478896005787 0)
(1.3407821229050279 0.5868637441775818 0)
(1.3575418994413408 0.5509795820522669 0)
(1.3743016759776536 0.5147432753009281 0)
(1.3910614525139664 0.47840512846071004 0)
(1.4078212290502794 0.4422161495354905 0)
(1.4245810055865922 0.4064263161425206 0)
(1.441340782122905 0.37128284877652107 0)
(1.458100558659218 0.3370285031187783 0)
(1.4748603351955307 0.30389989318721494 0)
(1.4916201117318435 0.2721258569103785 0)
(1.5083798882681565 0.241925875415252 0)
(1.5251396648044693 0.21350855694775472 0)
(1.541899441340782 0.18707019589833607 0)