/*--------------------------------*- C++ -*----------------------------------*\\
/*--------------------------------*- C++ -*----------------------------------*\\
| =========                 |                                                 |
| \\\\      /  F ield         | OpenFOAM: The Open Source CFD Toolbox           |
|  \\\\    /   O peration     | Version:  v2012                                 |
|   \\\\  /    A nd           | Website:  www.openfoam.com                      |
|    \\\\/     M anipulation  |                                                 |
\\*---------------------------------------------------------------------------*/
FoamFile
{
    version     2.0;
    format      ascii;
    class       dictionary;
    object      blockMeshDict;
}
// * * * * * * * * * * * * * * * * * * * * * * * * * * * * * * * * * * * * * //

scale   0.01;

xmin -1;
xmax 5;
ymin 0;
ymax 0.5;
zmin 0;
zmax 0.1;

vertices
(
    (-1.00000000 -0.18471845 0.00000000)
    (4.00000000 0.07200874 0.00000000)
    (4.00000000 0.57200874 0.00000000)
    (-1.00000000 0.31528155 0.00000000)
    (-1.00000000 -0.18471845 0.10000000)
    (4.00000000 0.07200874 0.10000000)
    (4.00000000 0.57200874 0.10000000)
    (-1.00000000 0.31528155 0.10000000)
);

blocks
(
    hex (0 1 2 3 4 5 6 7) (200 20 1) simpleGrading (1 1 1)
);

edges
(
	polyLine 0 1
	(
		(-1.00000000 -0.18471845 0.00000000)
		(-0.98000000 -0.18471845 0.00000000)
		(-0.96000000 -0.18471845 0.00000000)
		(-0.94000000 -0.18471845 0.00000000)
		(-0.92000000 -0.18471845 0.00000000)
		(-0.90000000 -0.18471845 0.00000000)
		(-0.88000000 -0.18471845 0.00000000)
		(-0.86000000 -0.18471845 0.00000000)
		(-0.84000000 -0.18471845 0.00000000)
		(-0.82000000 -0.18471845 0.00000000)
		(-0.80000000 -0.18471845 0.00000000)
		(-0.78000000 -0.18471845 0.00000000)
		(-0.76000000 -0.18471845 0.00000000)
		(-0.74000000 -0.18471845 0.00000000)
		(-0.72000000 -0.18471845 0.00000000)
		(-0.70000000 -0.18471845 0.00000000)
		(-0.68000000 -0.18471845 0.00000000)
		(-0.66000000 -0.18471845 0.00000000)
		(-0.64000000 -0.18471845 0.00000000)
		(-0.62000000 -0.18471845 0.00000000)
		(-0.60000000 -0.18471845 0.00000000)
		(-0.58000000 -0.18471845 0.00000000)
		(-0.56000000 -0.18471845 0.00000000)
		(-0.54000000 -0.18471845 0.00000000)
		(-0.52000000 -0.18471845 0.00000000)
		(-0.50000000 -0.18471845 0.00000000)
		(-0.48000000 -0.18471845 0.00000000)
		(-0.46000000 -0.18471845 0.00000000)
		(-0.44000000 -0.18471845 0.00000000)
		(-0.42000000 -0.18471845 0.00000000)
		(-0.40000000 -0.18471845 0.00000000)
		(-0.38000000 -0.18471845 0.00000000)
		(-0.36000000 -0.18471845 0.00000000)
		(-0.34000000 -0.18471845 0.00000000)
		(-0.32000000 -0.18471845 0.00000000)
		(-0.30000000 -0.18471845 0.00000000)
		(-0.28000000 -0.18471845 0.00000000)
		(-0.26000000 -0.18471845 0.00000000)
		(-0.24000000 -0.18471845 0.00000000)
		(-0.22000000 -0.18471845 0.00000000)
		(-0.20000000 -0.18471845 0.00000000)
		(-0.18000000 -0.18471845 0.00000000)
		(-0.16000000 -0.18471845 0.00000000)
		(-0.14000000 -0.18471845 0.00000000)
		(-0.12000000 -0.18471845 0.00000000)
		(-0.10000000 -0.18471845 0.00000000)
		(-0.08162011 -0.18379291 0.00000000)
		(-0.06324022 -0.18101630 0.00000000)
		(-0.04486034 -0.17638860 0.00000000)
		(-0.02648045 -0.16990984 0.00000000)
		(-0.00810056 -0.16157999 0.00000000)
		(0.01027933 -0.15139907 0.00000000)
		(0.02865922 -0.13936708 0.00000000)
		(0.04703911 -0.12548400 0.00000000)
		(0.06541899 -0.10974985 0.00000000)
		(0.08379888 -0.09216463 0.00000000)
		(0.10055866 -0.07072087 0.00000000)
		(0.11731844 -0.04869488 0.00000000)
		(0.13407821 -0.02626799 0.00000000)
		(0.15083799 -0.00362484 0.00000000)
		(0.16759777 0.01904816 0.00000000)
		(0.18435754 0.04156433 0.00000000)
		(0.20111732 0.06373831 0.00000000)
		(0.21787709 0.08538754 0.00000000)
		(0.23463687 0.10633379 0.00000000)
		(0.25139665 0.12640460 0.00000000)
		(0.26815642 0.14543473 0.00000000)
		(0.28491620 0.16326752 0.00000000)
		(0.30167598 0.17975615 0.00000000)
		(0.31843575 0.19476486 0.00000000)
		(0.33519553 0.20817010 0.00000000)
		(0.35195531 0.21986149 0.00000000)
		(0.36871508 0.22974279 0.00000000)
		(0.38547486 0.23773265 0.00000000)
		(0.40223464 0.24376528 0.00000000)
		(0.41899441 0.24779102 0.00000000)
		(0.43575419 0.24977672 0.00000000)
		(0.45251397 0.24970604 0.00000000)
		(0.46927374 0.24757956 0.00000000)
		(0.48603352 0.24341478 0.00000000)
		(0.50279330 0.23724600 0.00000000)
		(0.51955307 0.22912400 0.00000000)
		(0.53631285 0.21911564 0.00000000)
		(0.55307263 0.20730334 0.00000000)
		(0.56983240 0.19378432 0.00000000)
		(0.58659218 0.17866991 0.00000000)
		(0.60335196 0.16208452 0.00000000)
		(0.62011173 0.14416471 0.00000000)
		(0.63687151 0.12505801 0.00000000)
		(0.65363128 0.10492173 0.00000000)
		(0.67039106 0.08392163 0.00000000)
		(0.68715084 0.06223062 0.00000000)
		(0.70391061 0.04002726 0.00000000)
		(0.72067039 0.01749437 0.00000000)
		(0.73743017 -0.00518255 0.00000000)
		(0.75418994 -0.02781680 0.00000000)
		(0.77094972 -0.05022204 0.00000000)
		(0.78770950 -0.07221381 0.00000000)
		(0.80446927 -0.09361105 0.00000000)
		(0.82122905 -0.11423760 0.00000000)
		(0.83798883 -0.13392365 0.00000000)
		(0.85474860 -0.15250712 0.00000000)
		(0.87150838 -0.16983501 0.00000000)
		(0.88826816 -0.18576467 0.00000000)
		(0.90502793 -0.20016496 0.00000000)
		(0.92178771 -0.21291730 0.00000000)
		(0.93854749 -0.22391673 0.00000000)
		(0.95530726 -0.23307267 0.00000000)
		(0.97206704 -0.24030975 0.00000000)
		(0.98882682 -0.24556839 0.00000000)
		(1.00558659 -0.24880529 0.00000000)
		(1.02234637 -0.24999381 0.00000000)
		(1.03910615 -0.24912416 0.00000000)
		(1.05586592 -0.24620350 0.00000000)
		(1.07262570 -0.24125587 0.00000000)
		(1.08938547 -0.23432201 0.00000000)
		(1.10614525 -0.22545900 0.00000000)
		(1.12290503 -0.21473981 0.00000000)
		(1.13966480 -0.20225270 0.00000000)
		(1.15642458 -0.18810046 0.00000000)
		(1.17318436 -0.17239961 0.00000000)
		(1.18994413 -0.15527942 0.00000000)
		(1.20670391 -0.13688083 0.00000000)
		(1.22346369 -0.11735532 0.00000000)
		(1.24022346 -0.09686363 0.00000000)
		(1.25698324 -0.07557447 0.00000000)
		(1.27374302 -0.05366312 0.00000000)
		(1.29050279 -0.03130997 0.00000000)
		(1.30726257 -0.00869904 0.00000000)
		(1.32402235 0.01398350 0.00000000)
		(1.34078212 0.03655092 0.00000000)
		(1.35754190 0.05881742 0.00000000)
		(1.37430168 0.08059968 0.00000000)
		(1.39106145 0.10171837 0.00000000)
		(1.40782123 0.12199963 0.00000000)
		(1.42458101 0.14127648 0.00000000)
		(1.44134078 0.15939022 0.00000000)
		(1.45810056 0.17619171 0.00000000)
		(1.47486034 0.19154264 0.00000000)
		(1.49162011 0.20531662 0.00000000)
		(1.50837989 0.21740025 0.00000000)
		(1.52513966 0.22769405 0.00000000)
		(1.54189944 0.23611327 0.00000000)
		(1.55865922 0.24258860 0.00000000)
		(1.57541899 0.24706672 0.00000000)
		(1.59217877 0.24951077 0.00000000)
		(1.60893855 0.24990063 0.00000000)
		(1.62569832 0.24823309 0.00000000)
		(1.64245810 0.24452186 0.00000000)
		(1.65921788 0.23879752 0.00000000)
		(1.67597765 0.23110719 0.00000000)
		(1.69273743 0.22151418 0.00000000)
		(1.70949721 0.21009746 0.00000000)
		(1.72625698 0.19695104 0.00000000)
		(1.74301676 0.18218314 0.00000000)
		(1.75977654 0.16591535 0.00000000)
		(1.77653631 0.14828160 0.00000000)
		(1.79329609 0.12942706 0.00000000)
		(1.81005587 0.10950696 0.00000000)
		(1.82681564 0.08868531 0.00000000)
		(1.84357542 0.06713352 0.00000000)
		(1.86033520 0.04502902 0.00000000)
		(1.87709497 0.02255381 0.00000000)
		(1.89385475 -0.00010708 0.00000000)
		(1.91061453 -0.02276710 0.00000000)
		(1.92737430 -0.04523967 0.00000000)
		(1.94413408 -0.06733979 0.00000000)
		(1.96089385 -0.08888552 0.00000000)
		(1.97765363 -0.10969945 0.00000000)
		(1.99441341 -0.12961025 0.00000000)
		(2.01117318 -0.14845397 0.00000000)
		(2.02793296 -0.16607550 0.00000000)
		(2.04469274 -0.18232974 0.00000000)
		(2.06145251 -0.19708288 0.00000000)
		(2.07821229 -0.21021346 0.00000000)
		(2.09497207 -0.22161338 0.00000000)
		(2.11173184 -0.23118878 0.00000000)
		(2.12849162 -0.23886083 0.00000000)
		(2.14525140 -0.24456636 0.00000000)
		(2.16201117 -0.24825841 0.00000000)
		(2.17877095 -0.24990658 0.00000000)
		(2.19553073 -0.24949729 0.00000000)
		(2.21229050 -0.24703392 0.00000000)
		(2.22905028 -0.24253675 0.00000000)
		(2.24581006 -0.23604280 0.00000000)
		(2.26256983 -0.22760554 0.00000000)
		(2.27932961 -0.21729443 0.00000000)
		(2.29608939 -0.20519435 0.00000000)
		(2.31284916 -0.19140494 0.00000000)
		(2.32960894 -0.17603971 0.00000000)
		(2.34636872 -0.15922516 0.00000000)
		(2.36312849 -0.14109974 0.00000000)
		(2.37988827 -0.12181265 0.00000000)
		(2.39664804 -0.10152270 0.00000000)
		(2.41340782 -0.08039692 0.00000000)
		(2.43016760 -0.05860924 0.00000000)
		(2.44692737 -0.03633904 0.00000000)
		(2.46368715 -0.01376966 0.00000000)
		(2.48044693 0.00891308 0.00000000)
		(2.49720670 0.03152244 0.00000000)
		(2.51396648 0.05387228 0.00000000)
		(2.53072626 0.07577859 0.00000000)
		(2.54748603 0.09706103 0.00000000)
		(2.56424581 0.11754438 0.00000000)
		(2.58100559 0.13706000 0.00000000)
		(2.59776536 0.15544721 0.00000000)
		(2.61452514 0.17255465 0.00000000)
		(2.63128492 0.18824147 0.00000000)
		(2.64804469 0.20237851 0.00000000)
		(2.66480447 0.21484940 0.00000000)
		(2.68156425 0.22555145 0.00000000)
		(2.69832402 0.23439657 0.00000000)
		(2.71508380 0.24131193 0.00000000)
		(2.73184358 0.24624059 0.00000000)
		(2.74860335 0.24914198 0.00000000)
		(2.76536313 0.24999221 0.00000000)
		(2.78212291 0.24878429 0.00000000)
		(2.79888268 0.24552816 0.00000000)
		(2.81564246 0.24025061 0.00000000)
		(2.83240223 0.23299512 0.00000000)
		(2.84916201 0.22382140 0.00000000)
		(2.86592179 0.21280498 0.00000000)
		(2.88268156 0.20003657 0.00000000)
		(2.89944134 0.18562128 0.00000000)
		(2.91620112 0.16967779 0.00000000)
		(2.93296089 0.15233736 0.00000000)
		(2.95166480 0.13707492 0.00000000)
		(2.97036872 0.12341906 0.00000000)
		(2.98907263 0.11136976 0.00000000)
		(3.00777654 0.10092704 0.00000000)
		(3.02648045 0.09209090 0.00000000)
		(3.04518436 0.08486132 0.00000000)
		(3.06388827 0.07923832 0.00000000)
		(3.08259218 0.07522189 0.00000000)
		(3.10129609 0.07281203 0.00000000)
		(3.12000000 0.07200874 0.00000000)
		(3.14000000 0.07200874 0.00000000)
		(3.16000000 0.07200874 0.00000000)
		(3.18000000 0.07200874 0.00000000)
		(3.20000000 0.07200874 0.00000000)
		(3.22000000 0.07200874 0.00000000)
		(3.24000000 0.07200874 0.00000000)
		(3.26000000 0.07200874 0.00000000)
		(3.28000000 0.07200874 0.00000000)
		(3.30000000 0.07200874 0.00000000)
		(3.32000000 0.07200874 0.00000000)
		(3.34000000 0.07200874 0.00000000)
		(3.36000000 0.07200874 0.00000000)
		(3.38000000 0.07200874 0.00000000)
		(3.40000000 0.07200874 0.00000000)
		(3.42000000 0.07200874 0.00000000)
		(3.44000000 0.07200874 0.00000000)
		(3.46000000 0.07200874 0.00000000)
		(3.48000000 0.07200874 0.00000000)
		(3.50000000 0.07200874 0.00000000)
		(3.52000000 0.07200874 0.00000000)
		(3.54000000 0.07200874 0.00000000)
		(3.56000000 0.07200874 0.00000000)
		(3.58000000 0.07200874 0.00000000)
		(3.60000000 0.07200874 0.00000000)
		(3.62000000 0.07200874 0.00000000)
		(3.64000000 0.07200874 0.00000000)
		(3.66000000 0.07200874 0.00000000)
		(3.68000000 0.07200874 0.00000000)
		(3.70000000 0.07200874 0.00000000)
		(3.72000000 0.07200874 0.00000000)
		(3.74000000 0.07200874 0.00000000)
		(3.76000000 0.07200874 0.00000000)
		(3.78000000 0.07200874 0.00000000)
		(3.80000000 0.07200874 0.00000000)
		(3.82000000 0.07200874 0.00000000)
		(3.84000000 0.07200874 0.00000000)
		(3.86000000 0.07200874 0.00000000)
		(3.88000000 0.07200874 0.00000000)
		(3.90000000 0.07200874 0.00000000)
		(3.92000000 0.07200874 0.00000000)
		(3.94000000 0.07200874 0.00000000)
		(3.96000000 0.07200874 0.00000000)
		(3.98000000 0.07200874 0.00000000)
		(4.00000000 0.07200874 0.00000000)
	)
	polyLine 4 5
	(
		(-1.00000000 -0.18471845 0.10000000)
		(-0.98000000 -0.18471845 0.10000000)
		(-0.96000000 -0.18471845 0.10000000)
		(-0.94000000 -0.18471845 0.10000000)
		(-0.92000000 -0.18471845 0.10000000)
		(-0.90000000 -0.18471845 0.10000000)
		(-0.88000000 -0.18471845 0.10000000)
		(-0.86000000 -0.18471845 0.10000000)
		(-0.84000000 -0.18471845 0.10000000)
		(-0.82000000 -0.18471845 0.10000000)
		(-0.80000000 -0.18471845 0.10000000)
		(-0.78000000 -0.18471845 0.10000000)
		(-0.76000000 -0.18471845 0.10000000)
		(-0.74000000 -0.18471845 0.10000000)
		(-0.72000000 -0.18471845 0.10000000)
		(-0.70000000 -0.18471845 0.10000000)
		(-0.68000000 -0.18471845 0.10000000)
		(-0.66000000 -0.18471845 0.10000000)
		(-0.64000000 -0.18471845 0.10000000)
		(-0.62000000 -0.18471845 0.10000000)
		(-0.60000000 -0.18471845 0.10000000)
		(-0.58000000 -0.18471845 0.10000000)
		(-0.56000000 -0.18471845 0.10000000)
		(-0.54000000 -0.18471845 0.10000000)
		(-0.52000000 -0.18471845 0.10000000)
		(-0.50000000 -0.18471845 0.10000000)
		(-0.48000000 -0.18471845 0.10000000)
		(-0.46000000 -0.18471845 0.10000000)
		(-0.44000000 -0.18471845 0.10000000)
		(-0.42000000 -0.18471845 0.10000000)
		(-0.40000000 -0.18471845 0.10000000)
		(-0.38000000 -0.18471845 0.10000000)
		(-0.36000000 -0.18471845 0.10000000)
		(-0.34000000 -0.18471845 0.10000000)
		(-0.32000000 -0.18471845 0.10000000)
		(-0.30000000 -0.18471845 0.10000000)
		(-0.28000000 -0.18471845 0.10000000)
		(-0.26000000 -0.18471845 0.10000000)
		(-0.24000000 -0.18471845 0.10000000)
		(-0.22000000 -0.18471845 0.10000000)
		(-0.20000000 -0.18471845 0.10000000)
		(-0.18000000 -0.18471845 0.10000000)
		(-0.16000000 -0.18471845 0.10000000)
		(-0.14000000 -0.18471845 0.10000000)
		(-0.12000000 -0.18471845 0.10000000)
		(-0.10000000 -0.18471845 0.10000000)
		(-0.08162011 -0.18379291 0.10000000)
		(-0.06324022 -0.18101630 0.10000000)
		(-0.04486034 -0.17638860 0.10000000)
		(-0.02648045 -0.16990984 0.10000000)
		(-0.00810056 -0.16157999 0.10000000)
		(0.01027933 -0.15139907 0.10000000)
		(0.02865922 -0.13936708 0.10000000)
		(0.04703911 -0.12548400 0.10000000)
		(0.06541899 -0.10974985 0.10000000)
		(0.08379888 -0.09216463 0.10000000)
		(0.10055866 -0.07072087 0.10000000)
		(0.11731844 -0.04869488 0.10000000)
		(0.13407821 -0.02626799 0.10000000)
		(0.15083799 -0.00362484 0.10000000)
		(0.16759777 0.01904816 0.10000000)
		(0.18435754 0.04156433 0.10000000)
		(0.20111732 0.06373831 0.10000000)
		(0.21787709 0.08538754 0.10000000)
		(0.23463687 0.10633379 0.10000000)
		(0.25139665 0.12640460 0.10000000)
		(0.26815642 0.14543473 0.10000000)
		(0.28491620 0.16326752 0.10000000)
		(0.30167598 0.17975615 0.10000000)
		(0.31843575 0.19476486 0.10000000)
		(0.33519553 0.20817010 0.10000000)
		(0.35195531 0.21986149 0.10000000)
		(0.36871508 0.22974279 0.10000000)
		(0.38547486 0.23773265 0.10000000)
		(0.40223464 0.24376528 0.10000000)
		(0.41899441 0.24779102 0.10000000)
		(0.43575419 0.24977672 0.10000000)
		(0.45251397 0.24970604 0.10000000)
		(0.46927374 0.24757956 0.10000000)
		(0.48603352 0.24341478 0.10000000)
		(0.50279330 0.23724600 0.10000000)
		(0.51955307 0.22912400 0.10000000)
		(0.53631285 0.21911564 0.10000000)
		(0.55307263 0.20730334 0.10000000)
		(0.56983240 0.19378432 0.10000000)
		(0.58659218 0.17866991 0.10000000)
		(0.60335196 0.16208452 0.10000000)
		(0.62011173 0.14416471 0.10000000)
		(0.63687151 0.12505801 0.10000000)
		(0.65363128 0.10492173 0.10000000)
		(0.67039106 0.08392163 0.10000000)
		(0.68715084 0.06223062 0.10000000)
		(0.70391061 0.04002726 0.10000000)
		(0.72067039 0.01749437 0.10000000)
		(0.73743017 -0.00518255 0.10000000)
		(0.75418994 -0.02781680 0.10000000)
		(0.77094972 -0.05022204 0.10000000)
		(0.78770950 -0.07221381 0.10000000)
		(0.80446927 -0.09361105 0.10000000)
		(0.82122905 -0.11423760 0.10000000)
		(0.83798883 -0.13392365 0.10000000)
		(0.85474860 -0.15250712 0.10000000)
		(0.87150838 -0.16983501 0.10000000)
		(0.88826816 -0.18576467 0.10000000)
		(0.90502793 -0.20016496 0.10000000)
		(0.92178771 -0.21291730 0.10000000)
		(0.93854749 -0.22391673 0.10000000)
		(0.95530726 -0.23307267 0.10000000)
		(0.97206704 -0.24030975 0.10000000)
		(0.98882682 -0.24556839 0.10000000)
		(1.00558659 -0.24880529 0.10000000)
		(1.02234637 -0.24999381 0.10000000)
		(1.03910615 -0.24912416 0.10000000)
		(1.05586592 -0.24620350 0.10000000)
		(1.07262570 -0.24125587 0.10000000)
		(1.08938547 -0.23432201 0.10000000)
		(1.10614525 -0.22545900 0.10000000)
		(1.12290503 -0.21473981 0.10000000)
		(1.13966480 -0.20225270 0.10000000)
		(1.15642458 -0.18810046 0.10000000)
		(1.17318436 -0.17239961 0.10000000)
		(1.18994413 -0.15527942 0.10000000)
		(1.20670391 -0.13688083 0.10000000)
		(1.22346369 -0.11735532 0.10000000)
		(1.24022346 -0.09686363 0.10000000)
		(1.25698324 -0.07557447 0.10000000)
		(1.27374302 -0.05366312 0.10000000)
		(1.29050279 -0.03130997 0.10000000)
		(1.30726257 -0.00869904 0.10000000)
		(1.32402235 0.01398350 0.10000000)
		(1.34078212 0.03655092 0.10000000)
		(1.35754190 0.05881742 0.10000000)
		(1.37430168 0.08059968 0.10000000)
		(1.39106145 0.10171837 0.10000000)
		(1.40782123 0.12199963 0.10000000)
		(1.42458101 0.14127648 0.10000000)
		(1.44134078 0.15939022 0.10000000)
		(1.45810056 0.17619171 0.10000000)
		(1.47486034 0.19154264 0.10000000)
		(1.49162011 0.20531662 0.10000000)
		(1.50837989 0.21740025 0.10000000)
		(1.52513966 0.22769405 0.10000000)
		(1.54189944 0.23611327 0.10000000)
		(1.55865922 0.24258860 0.10000000)
		(1.57541899 0.24706672 0.10000000)
		(1.59217877 0.24951077 0.10000000)
		(1.60893855 0.24990063 0.10000000)
		(1.62569832 0.24823309 0.10000000)
		(1.64245810 0.24452186 0.10000000)
		(1.65921788 0.23879752 0.10000000)
		(1.67597765 0.23110719 0.10000000)
		(1.69273743 0.22151418 0.10000000)
		(1.70949721 0.21009746 0.10000000)
		(1.72625698 0.19695104 0.10000000)
		(1.74301676 0.18218314 0.10000000)
		(1.75977654 0.16591535 0.10000000)
		(1.77653631 0.14828160 0.10000000)
		(1.79329609 0.12942706 0.10000000)
		(1.81005587 0.10950696 0.10000000)
		(1.82681564 0.08868531 0.10000000)
		(1.84357542 0.06713352 0.10000000)
		(1.86033520 0.04502902 0.10000000)
		(1.87709497 0.02255381 0.10000000)
		(1.89385475 -0.00010708 0.10000000)
		(1.91061453 -0.02276710 0.10000000)
		(1.92737430 -0.04523967 0.10000000)
		(1.94413408 -0.06733979 0.10000000)
		(1.96089385 -0.08888552 0.10000000)
		(1.97765363 -0.10969945 0.10000000)
		(1.99441341 -0.12961025 0.10000000)
		(2.01117318 -0.14845397 0.10000000)
		(2.02793296 -0.16607550 0.10000000)
		(2.04469274 -0.18232974 0.10000000)
		(2.06145251 -0.19708288 0.10000000)
		(2.07821229 -0.21021346 0.10000000)
		(2.09497207 -0.22161338 0.10000000)
		(2.11173184 -0.23118878 0.10000000)
		(2.12849162 -0.23886083 0.10000000)
		(2.14525140 -0.24456636 0.10000000)
		(2.16201117 -0.24825841 0.10000000)
		(2.17877095 -0.24990658 0.10000000)
		(2.19553073 -0.24949729 0.10000000)
		(2.21229050 -0.24703392 0.10000000)
		(2.22905028 -0.24253675 0.10000000)
		(2.24581006 -0.23604280 0.10000000)
		(2.26256983 -0.22760554 0.10000000)
		(2.27932961 -0.21729443 0.10000000)
		(2.29608939 -0.20519435 0.10000000)
		(2.31284916 -0.19140494 0.10000000)
		(2.32960894 -0.17603971 0.10000000)
		(2.34636872 -0.15922516 0.10000000)
		(2.36312849 -0.14109974 0.10000000)
		(2.37988827 -0.12181265 0.10000000)
		(2.39664804 -0.10152270 0.10000000)
		(2.41340782 -0.08039692 0.10000000)
		(2.43016760 -0.05860924 0.10000000)
		(2.44692737 -0.03633904 0.10000000)
		(2.46368715 -0.01376966 0.10000000)
		(2.48044693 0.00891308 0.10000000)
		(2.49720670 0.03152244 0.10000000)
		(2.51396648 0.05387228 0.10000000)
		(2.53072626 0.07577859 0.10000000)
		(2.54748603 0.09706103 0.10000000)
		(2.56424581 0.11754438 0.10000000)
		(2.58100559 0.13706000 0.10000000)
		(2.59776536 0.15544721 0.10000000)
		(2.61452514 0.17255465 0.10000000)
		(2.63128492 0.18824147 0.10000000)
		(2.64804469 0.20237851 0.10000000)
		(2.66480447 0.21484940 0.10000000)
		(2.68156425 0.22555145 0.10000000)
		(2.69832402 0.23439657 0.10000000)
		(2.71508380 0.24131193 0.10000000)
		(2.73184358 0.24624059 0.10000000)
		(2.74860335 0.24914198 0.10000000)
		(2.76536313 0.24999221 0.10000000)
		(2.78212291 0.24878429 0.10000000)
		(2.79888268 0.24552816 0.10000000)
		(2.81564246 0.24025061 0.10000000)
		(2.83240223 0.23299512 0.10000000)
		(2.84916201 0.22382140 0.10000000)
		(2.86592179 0.21280498 0.10000000)
		(2.88268156 0.20003657 0.10000000)
		(2.89944134 0.18562128 0.10000000)
		(2.91620112 0.16967779 0.10000000)
		(2.93296089 0.15233736 0.10000000)
		(2.95166480 0.13707492 0.10000000)
		(2.97036872 0.12341906 0.10000000)
		(2.98907263 0.11136976 0.10000000)
		(3.00777654 0.10092704 0.10000000)
		(3.02648045 0.09209090 0.10000000)
		(3.04518436 0.08486132 0.10000000)
		(3.06388827 0.07923832 0.10000000)
		(3.08259218 0.07522189 0.10000000)
		(3.10129609 0.07281203 0.10000000)
		(3.12000000 0.07200874 0.10000000)
		(3.14000000 0.07200874 0.10000000)
		(3.16000000 0.07200874 0.10000000)
		(3.18000000 0.07200874 0.10000000)
		(3.20000000 0.07200874 0.10000000)
		(3.22000000 0.07200874 0.10000000)
		(3.24000000 0.07200874 0.10000000)
		(3.26000000 0.07200874 0.10000000)
		(3.28000000 0.07200874 0.10000000)
		(3.30000000 0.07200874 0.10000000)
		(3.32000000 0.07200874 0.10000000)
		(3.34000000 0.07200874 0.10000000)
		(3.36000000 0.07200874 0.10000000)
		(3.38000000 0.07200874 0.10000000)
		(3.40000000 0.07200874 0.10000000)
		(3.42000000 0.07200874 0.10000000)
		(3.44000000 0.07200874 0.10000000)
		(3.46000000 0.07200874 0.10000000)
		(3.48000000 0.07200874 0.10000000)
		(3.50000000 0.07200874 0.10000000)
		(3.52000000 0.07200874 0.10000000)
		(3.54000000 0.07200874 0.10000000)
		(3.56000000 0.07200874 0.10000000)
		(3.58000000 0.07200874 0.10000000)
		(3.60000000 0.07200874 0.10000000)
		(3.62000000 0.07200874 0.10000000)
		(3.64000000 0.07200874 0.10000000)
		(3.66000000 0.07200874 0.10000000)
		(3.68000000 0.07200874 0.10000000)
		(3.70000000 0.07200874 0.10000000)
		(3.72000000 0.07200874 0.10000000)
		(3.74000000 0.07200874 0.10000000)
		(3.76000000 0.07200874 0.10000000)
		(3.78000000 0.07200874 0.10000000)
		(3.80000000 0.07200874 0.10000000)
		(3.82000000 0.07200874 0.10000000)
		(3.84000000 0.07200874 0.10000000)
		(3.86000000 0.07200874 0.10000000)
		(3.88000000 0.07200874 0.10000000)
		(3.90000000 0.07200874 0.10000000)
		(3.92000000 0.07200874 0.10000000)
		(3.94000000 0.07200874 0.10000000)
		(3.96000000 0.07200874 0.10000000)
		(3.98000000 0.07200874 0.10000000)
		(4.00000000 0.07200874 0.10000000)
	)
	polyLine 3 2
	(
		(-1.00000000 0.31528155 0.00000000)
		(-0.98000000 0.31411322 0.00000000)
		(-0.96000000 0.31294489 0.00000000)
		(-0.94000000 0.31177656 0.00000000)
		(-0.92000000 0.31060823 0.00000000)
		(-0.90000000 0.30943990 0.00000000)
		(-0.88000000 0.30827157 0.00000000)
		(-0.86000000 0.30710324 0.00000000)
		(-0.84000000 0.30593491 0.00000000)
		(-0.82000000 0.30476658 0.00000000)
		(-0.80000000 0.30359825 0.00000000)
		(-0.78000000 0.30242992 0.00000000)
		(-0.76000000 0.30126159 0.00000000)
		(-0.74000000 0.30009326 0.00000000)
		(-0.72000000 0.29892493 0.00000000)
		(-0.70000000 0.29775660 0.00000000)
		(-0.68000000 0.29658827 0.00000000)
		(-0.66000000 0.29541994 0.00000000)
		(-0.64000000 0.29425161 0.00000000)
		(-0.62000000 0.29308328 0.00000000)
		(-0.60000000 0.29191495 0.00000000)
		(-0.58000000 0.29074662 0.00000000)
		(-0.56000000 0.28957829 0.00000000)
		(-0.54000000 0.28840996 0.00000000)
		(-0.52000000 0.28724163 0.00000000)
		(-0.50000000 0.28607330 0.00000000)
		(-0.48000000 0.28490497 0.00000000)
		(-0.46000000 0.28373664 0.00000000)
		(-0.44000000 0.28256831 0.00000000)
		(-0.42000000 0.28139998 0.00000000)
		(-0.40000000 0.28023165 0.00000000)
		(-0.38000000 0.27906332 0.00000000)
		(-0.36000000 0.27789499 0.00000000)
		(-0.34000000 0.27672666 0.00000000)
		(-0.32000000 0.27555833 0.00000000)
		(-0.30000000 0.27439000 0.00000000)
		(-0.28000000 0.27322167 0.00000000)
		(-0.26000000 0.27205334 0.00000000)
		(-0.24000000 0.27088501 0.00000000)
		(-0.22000000 0.26971668 0.00000000)
		(-0.20000000 0.26854835 0.00000000)
		(-0.18000000 0.26738002 0.00000000)
		(-0.16000000 0.26621169 0.00000000)
		(-0.14000000 0.26504336 0.00000000)
		(-0.12000000 0.26387503 0.00000000)
		(-0.10000000 0.26270670 0.00000000)
		(-0.08162011 0.26107848 0.00000000)
		(-0.06324022 0.26240242 0.00000000)
		(-0.04486034 0.26667852 0.00000000)
		(-0.02648045 0.27390678 0.00000000)
		(-0.00810056 0.28408719 0.00000000)
		(0.01027933 0.29721975 0.00000000)
		(0.02865922 0.31330448 0.00000000)
		(0.04703911 0.33234136 0.00000000)
		(0.06541899 0.35433040 0.00000000)
		(0.08379888 0.37927159 0.00000000)
		(0.10055866 0.40736122 0.00000000)
		(0.11731844 0.43621354 0.00000000)
		(0.13407821 0.46559100 0.00000000)
		(0.15083799 0.49525175 0.00000000)
		(0.16759777 0.52495159 0.00000000)
		(0.18435754 0.55444600 0.00000000)
		(0.20111732 0.58349217 0.00000000)
		(0.21787709 0.61185096 0.00000000)
		(0.23463687 0.63928889 0.00000000)
		(0.25139665 0.66558007 0.00000000)
		(0.26815642 0.69050805 0.00000000)
		(0.28491620 0.71386760 0.00000000)
		(0.30167598 0.73546640 0.00000000)
		(0.31843575 0.75512663 0.00000000)
		(0.33519553 0.77268643 0.00000000)
		(0.35195531 0.78800124 0.00000000)
		(0.36871508 0.80094497 0.00000000)
		(0.38547486 0.81141105 0.00000000)
		(0.40223464 0.81931332 0.00000000)
		(0.41899441 0.82458672 0.00000000)
		(0.43575419 0.82718783 0.00000000)
		(0.45251397 0.82709525 0.00000000)
		(0.46927374 0.82430972 0.00000000)
		(0.48603352 0.81885419 0.00000000)
		(0.50279330 0.81077357 0.00000000)
		(0.51955307 0.80013439 0.00000000)
		(0.53631285 0.78702424 0.00000000)
		(0.55307263 0.77155105 0.00000000)
		(0.56983240 0.75384220 0.00000000)
		(0.58659218 0.73404351 0.00000000)
		(0.60335196 0.71231796 0.00000000)
		(0.62011173 0.68884442 0.00000000)
		(0.63687151 0.66381615 0.00000000)
		(0.65363128 0.63743920 0.00000000)
		(0.67039106 0.60993073 0.00000000)
		(0.68715084 0.58151721 0.00000000)
		(0.70391061 0.55243256 0.00000000)
		(0.72067039 0.52291625 0.00000000)
		(0.73743017 0.49321127 0.00000000)
		(0.75418994 0.46356218 0.00000000)
		(0.77094972 0.43421308 0.00000000)
		(0.78770950 0.40540559 0.00000000)
		(0.80446927 0.37737689 0.00000000)
		(0.82122905 0.35035774 0.00000000)
		(0.83798883 0.32457057 0.00000000)
		(0.85474860 0.30022769 0.00000000)
		(0.87150838 0.27752951 0.00000000)
		(0.88826816 0.25666291 0.00000000)
		(0.90502793 0.23779967 0.00000000)
		(0.92178771 0.22109510 0.00000000)
		(0.93854749 0.20668672 0.00000000)
		(0.95530726 0.19469316 0.00000000)
		(0.97206704 0.18521315 0.00000000)
		(0.98882682 0.17832474 0.00000000)
		(1.00558659 0.17408466 0.00000000)
		(1.02234637 0.17252779 0.00000000)
		(1.03910615 0.17366697 0.00000000)
		(1.05586592 0.17749281 0.00000000)
		(1.07262570 0.18397381 0.00000000)
		(1.08938547 0.19305662 0.00000000)
		(1.10614525 0.20466647 0.00000000)
		(1.12290503 0.21870776 0.00000000)
		(1.13966480 0.23506489 0.00000000)
		(1.15642458 0.25360321 0.00000000)
		(1.17318436 0.27417008 0.00000000)
		(1.18994413 0.29659619 0.00000000)
		(1.20670391 0.32069689 0.00000000)
		(1.22346369 0.34627378 0.00000000)
		(1.24022346 0.37311628 0.00000000)
		(1.25698324 0.40100339 0.00000000)
		(1.27374302 0.42970554 0.00000000)
		(1.29050279 0.45898641 0.00000000)
		(1.30726257 0.48860494 0.00000000)
		(1.32402235 0.51831728 0.00000000)
		(1.34078212 0.54787883 0.00000000)
		(1.35754190 0.57704619 0.00000000)
		(1.37430168 0.60557923 0.00000000)
		(1.39106145 0.63324306 0.00000000)
		(1.40782123 0.65980991 0.00000000)
		(1.42458101 0.68506107 0.00000000)
		(1.44134078 0.70878863 0.00000000)
		(1.45810056 0.73079727 0.00000000)
		(1.47486034 0.75090578 0.00000000)
		(1.49162011 0.76894861 0.00000000)
		(1.50837989 0.78477721 0.00000000)
		(1.52513966 0.79826128 0.00000000)
		(1.54189944 0.80928980 0.00000000)
		(1.55865922 0.81777196 0.00000000)
		(1.57541899 0.82363795 0.00000000)
		(1.59217877 0.82683947 0.00000000)
		(1.60893855 0.82735015 0.00000000)
		(1.62569832 0.82516579 0.00000000)
		(1.64245810 0.82030439 0.00000000)
		(1.65921788 0.81280595 0.00000000)
		(1.67597765 0.80273222 0.00000000)
		(1.69273743 0.79016613 0.00000000)
		(1.70949721 0.77521113 0.00000000)
		(1.72625698 0.75799035 0.00000000)
		(1.74301676 0.73864557 0.00000000)
		(1.75977654 0.71733604 0.00000000)
		(1.77653631 0.69423722 0.00000000)
		(1.79329609 0.66953926 0.00000000)
		(1.81005587 0.64344550 0.00000000)
		(1.82681564 0.61617077 0.00000000)
		(1.84357542 0.58793962 0.00000000)
		(1.86033520 0.55898447 0.00000000)
		(1.87709497 0.52954372 0.00000000)
		(1.89385475 0.49985973 0.00000000)
		(1.91061453 0.47017689 0.00000000)
		(1.92737430 0.44073959 0.00000000)
		(1.94413408 0.41179017 0.00000000)
		(1.96089385 0.38356697 0.00000000)
		(1.97765363 0.35630236 0.00000000)
		(1.99441341 0.33022078 0.00000000)
		(2.01117318 0.30553699 0.00000000)
		(2.02793296 0.28245418 0.00000000)
		(2.04469274 0.26116240 0.00000000)
		(2.06145251 0.24183695 0.00000000)
		(2.07821229 0.22463692 0.00000000)
		(2.09497207 0.20970392 0.00000000)
		(2.11173184 0.19716090 0.00000000)
		(2.12849162 0.18711112 0.00000000)
		(2.14525140 0.17963732 0.00000000)
		(2.16201117 0.17480103 0.00000000)
		(2.17877095 0.17264206 0.00000000)
		(2.19553073 0.17317820 0.00000000)
		(2.21229050 0.17640502 0.00000000)
		(2.22905028 0.18229596 0.00000000)
		(2.24581006 0.19080252 0.00000000)
		(2.26256983 0.20185467 0.00000000)
		(2.27932961 0.21536141 0.00000000)
		(2.29608939 0.23121156 0.00000000)
		(2.31284916 0.24927460 0.00000000)
		(2.32960894 0.26940184 0.00000000)
		(2.34636872 0.29142757 0.00000000)
		(2.36312849 0.31517046 0.00000000)
		(2.37988827 0.34043502 0.00000000)
		(2.39664804 0.36701326 0.00000000)
		(2.41340782 0.39468637 0.00000000)
		(2.43016760 0.42322651 0.00000000)
		(2.44692737 0.45239872 0.00000000)
		(2.46368715 0.48196283 0.00000000)
		(2.48044693 0.51167543 0.00000000)
		(2.49720670 0.54129191 0.00000000)
		(2.51396648 0.57056844 0.00000000)
		(2.53072626 0.59926399 0.00000000)