/*--------------------------------*- C++ -*----------------------------------*\\
/*--------------------------------*- C++ -*----------------------------------*\\
| =========                 |                                                 |
| \\\\      /  F ield         | OpenFOAM: The Open Source CFD Toolbox           |
|  \\\\    /   O peration     | Version:  v2012                                 |
|   \\\\  /    A nd           | Website:  www.openfoam.com                      |
|    \\\\/     M anipulation  |                                                 |
\\*---------------------------------------------------------------------------*/
FoamFile
{
    version     2.0;
    format      ascii;
    class       dictionary;
    object      blockMeshDict;
}
// * * * * * * * * * * * * * * * * * * * * * * * * * * * * * * * * * * * * * //

scale   0.01;

xmin -1;
xmax 5;
ymin 0;
ymax 0.5;
zmin 0;
zmax 0.1;

vertices
(
    (-1.00000000 0.15775679 0.00000000)
    (4.00000000 0.24549667 0.00000000)
    (4.00000000 0.74549667 0.00000000)
    (-1.00000000 0.65775679 0.00000000)
    (-1.00000000 0.15775679 0.10000000)
    (4.00000000 0.24549667 0.10000000)
    (4.00000000 0.74549667 0.10000000)
    (-1.00000000 0.65775679 0.10000000)
);

blocks
(
    hex (0 1 2 3 4 5 6 7) (200 20 1) simpleGrading (1 1 1)
);

edges
(
	polyLine 0 1
	(
		(-1.00000000 0.15775679 0.00000000)
		(-0.98000000 0.15775679 0.00000000)
		(-0.96000000 0.15775679 0.00000000)
		(-0.94000000 0.15775679 0.00000000)
		(-0.92000000 0.15775679 0.00000000)
		(-0.90000000 0.15775679 0.00000000)
		(-0.88000000 0.15775679 0.00000000)
		(-0.86000000 0.15775679 0.00000000)
		(-0.84000000 0.15775679 0.00000000)
		(-0.82000000 0.15775679 0.00000000)
		(-0.80000000 0.15775679 0.00000000)
		(-0.78000000 0.15775679 0.00000000)
		(-0.76000000 0.15775679 0.00000000)
		(-0.74000000 0.15775679 0.00000000)
		(-0.72000000 0.15775679 0.00000000)
		(-0.70000000 0.15775679 0.00000000)
		(-0.68000000 0.15775679 0.00000000)
		(-0.66000000 0.15775679 0.00000000)
		(-0.64000000 0.15775679 0.00000000)
		(-0.62000000 0.15775679 0.00000000)
		(-0.60000000 0.15775679 0.00000000)
		(-0.58000000 0.15775679 0.00000000)
		(-0.56000000 0.15775679 0.00000000)
		(-0.54000000 0.15775679 0.00000000)
		(-0.52000000 0.15775679 0.00000000)
		(-0.50000000 0.15775679 0.00000000)
		(-0.48000000 0.15775679 0.00000000)
		(-0.46000000 0.15775679 0.00000000)
		(-0.44000000 0.15775679 0.00000000)
		(-0.42000000 0.15775679 0.00000000)
		(-0.40000000 0.15775679 0.00000000)
		(-0.38000000 0.15775679 0.00000000)
		(-0.36000000 0.15775679 0.00000000)
		(-0.34000000 0.15775679 0.00000000)
		(-0.32000000 0.15775679 0.00000000)
		(-0.30000000 0.15775679 0.00000000)
		(-0.28000000 0.15775679 0.00000000)
		(-0.26000000 0.15775679 0.00000000)
		(-0.24000000 0.15775679 0.00000000)
		(-0.22000000 0.15775679 0.00000000)
		(-0.20000000 0.15775679 0.00000000)
		(-0.18000000 0.15775679 0.00000000)
		(-0.16000000 0.15775679 0.00000000)
		(-0.14000000 0.15775679 0.00000000)
		(-0.12000000 0.15775679 0.00000000)
		(-0.10000000 0.15775679 0.00000000)
		(-0.08162011 0.15706452 0.00000000)
		(-0.06324022 0.15498772 0.00000000)
		(-0.04486034 0.15152637 0.00000000)
		(-0.02648045 0.14668050 0.00000000)
		(-0.00810056 0.14045008 0.00000000)
		(0.01027933 0.13283513 0.00000000)
		(0.02865922 0.12383564 0.00000000)
		(0.04703911 0.11345161 0.00000000)
		(0.06541899 0.10168305 0.00000000)
		(0.08379888 0.08852995 0.00000000)
		(0.10055866 0.07335251 0.00000000)
		(0.11731844 0.05787303 0.00000000)
		(0.13407821 0.04215523 0.00000000)
		(0.15083799 0.02626385 0.00000000)
		(0.16759777 0.01026433 0.00000000)
		(0.18435754 -0.00577746 0.00000000)
		(0.20111732 -0.02179547 0.00000000)
		(0.21787709 -0.03772372 0.00000000)
		(0.23463687 -0.05349664 0.00000000)
		(0.25139665 -0.06904927 0.00000000)
		(0.26815642 -0.08431757 0.00000000)
		(0.28491620 -0.09923867 0.00000000)
		(0.30167598 -0.11375113 0.00000000)
		(0.31843575 -0.12779520 0.00000000)
		(0.33519553 -0.14131303 0.00000000)
		(0.35195531 -0.15424897 0.00000000)
		(0.36871508 -0.16654975 0.00000000)
		(0.38547486 -0.17816472 0.00000000)
		(0.40223464 -0.18904605 0.00000000)
		(0.41899441 -0.19914893 0.00000000)
		(0.43575419 -0.20843177 0.00000000)
		(0.45251397 -0.21685633 0.00000000)
		(0.46927374 -0.22438794 0.00000000)
		(0.48603352 -0.23099557 0.00000000)
		(0.50279330 -0.23665201 0.00000000)
		(0.51955307 -0.24133398 0.00000000)
		(0.53631285 -0.24502219 0.00000000)
		(0.55307263 -0.24770147 0.00000000)
		(0.56983240 -0.24936076 0.00000000)
		(0.58659218 -0.24999325 0.00000000)
		(0.60335196 -0.24959633 0.00000000)
		(0.62011173 -0.24817164 0.00000000)
		(0.63687151 -0.24572503 0.00000000)
		(0.65363128 -0.24226658 0.00000000)
		(0.67039106 -0.23781054 0.00000000)
		(0.68715084 -0.23237525 0.00000000)
		(0.70391061 -0.22598310 0.00000000)
		(0.72067039 -0.21866041 0.00000000)
		(0.73743017 -0.21043732 0.00000000)
		(0.75418994 -0.20134771 0.00000000)
		(0.77094972 -0.19142899 0.00000000)
		(0.78770950 -0.18072202 0.00000000)
		(0.80446927 -0.16927087 0.00000000)
		(0.82122905 -0.15712271 0.00000000)
		(0.83798883 -0.14432756 0.00000000)
		(0.85474860 -0.13093810 0.00000000)
		(0.87150838 -0.11700947 0.00000000)
		(0.88826816 -0.10259902 0.00000000)
		(0.90502793 -0.08776609 0.00000000)
		(0.92178771 -0.07257177 0.00000000)
		(0.93854749 -0.05707861 0.00000000)
		(0.95530726 -0.04135042 0.00000000)
		(0.97206704 -0.02545195 0.00000000)
		(0.98882682 -0.00944868 0.00000000)
		(1.00558659 0.00659349 0.00000000)
		(1.02234637 0.02260852 0.00000000)
		(1.03910615 0.03853045 0.00000000)
		(1.05586592 0.05429372 0.00000000)
		(1.07262570 0.06983343 0.00000000)
		(1.08938547 0.08508557 0.00000000)
		(1.10614525 0.09998735 0.00000000)
		(1.12290503 0.11447742 0.00000000)
		(1.13966480 0.12849609 0.00000000)
		(1.15642458 0.14198564 0.00000000)
		(1.17318436 0.15489053 0.00000000)
		(1.18994413 0.16715762 0.00000000)
		(1.20670391 0.17873640 0.00000000)
		(1.22346369 0.18957918 0.00000000)
		(1.24022346 0.19964132 0.00000000)
		(1.25698324 0.20888139 0.00000000)
		(1.27374302 0.21726133 0.00000000)
		(1.29050279 0.22474665 0.00000000)
		(1.30726257 0.23130651 0.00000000)
		(1.32402235 0.23691391 0.00000000)
		(1.34078212 0.24154575 0.00000000)
		(1.35754190 0.24518297 0.00000000)
		(1.37430168 0.24781058 0.00000000)
		(1.39106145 0.24941777 0.00000000)
		(1.40782123 0.24999792 0.00000000)
		(1.42458101 0.24954863 0.00000000)
		(1.44134078 0.24807177 0.00000000)
		(1.45810056 0.24557341 0.00000000)
		(1.47486034 0.24206383 0.00000000)
		(1.49162011 0.23755750 0.00000000)
		(1.50837989 0.23207296 0.00000000)
		(1.52513966 0.22563280 0.00000000)
		(1.54189944 0.21826354 0.00000000)
		(1.55865922 0.20999552 0.00000000)
		(1.57541899 0.20086279 0.00000000)
		(1.59217877 0.19090296 0.00000000)
		(1.60893855 0.18015703 0.00000000)
		(1.62569832 0.16866927 0.00000000)
		(1.64245810 0.15648696 0.00000000)
		(1.65921788 0.14366028 0.00000000)
		(1.67597765 0.13024204 0.00000000)
		(1.69273743 0.11628749 0.00000000)
		(1.70949721 0.10185410 0.00000000)
		(1.72625698 0.08700130 0.00000000)
		(1.74301676 0.07179025 0.00000000)
		(1.75977654 0.05628359 0.00000000)
		(1.77653631 0.04054516 0.00000000)
		(1.79329609 0.02463978 0.00000000)
		(1.81005587 0.00863294 0.00000000)
		(1.82681564 -0.00740945 0.00000000)
		(1.84357542 -0.02342133 0.00000000)
		(1.86033520 -0.03933677 0.00000000)
		(1.87709497 -0.05509023 0.00000000)
		(1.89385475 -0.07061684 0.00000000)
		(1.91061453 -0.08585267 0.00000000)
		(1.92737430 -0.10073497 0.00000000)
		(1.94413408 -0.11520248 0.00000000)
		(1.96089385 -0.12919560 0.00000000)
		(1.97765363 -0.14265674 0.00000000)
		(1.99441341 -0.15553044 0.00000000)
		(2.01117318 -0.16776371 0.00000000)
		(2.02793296 -0.17930617 0.00000000)
		(2.04469274 -0.19011029 0.00000000)
		(2.06145251 -0.20013158 0.00000000)
		(2.07821229 -0.20932878 0.00000000)
		(2.09497207 -0.21766401 0.00000000)
		(2.11173184 -0.22510296 0.00000000)
		(2.12849162 -0.23161499 0.00000000)
		(2.14525140 -0.23717328 0.00000000)
		(2.16201117 -0.24175495 0.00000000)
		(2.17877095 -0.24534113 0.00000000)
		(2.19553073 -0.24791705 0.00000000)
		(2.21229050 -0.24947212 0.00000000)
		(2.22905028 -0.24999992 0.00000000)
		(2.24581006 -0.24949828 0.00000000)
		(2.26256983 -0.24796926 0.00000000)
		(2.27932961 -0.24541917 0.00000000)
		(2.29608939 -0.24185850 0.00000000)
		(2.31284916 -0.23730192 0.00000000)
		(2.32960894 -0.23176818 0.00000000)
		(2.34636872 -0.22528008 0.00000000)
		(2.36312849 -0.21786434 0.00000000)
		(2.37988827 -0.20955147 0.00000000)
		(2.39664804 -0.20037573 0.00000000)
		(2.41340782 -0.19037489 0.00000000)
		(2.43016760 -0.17959013 0.00000000)
		(2.44692737 -0.16806586 0.00000000)
		(2.46368715 -0.15584954 0.00000000)
		(2.48044693 -0.14299146 0.00000000)
		(2.49720670 -0.12954459 0.00000000)
		(2.51396648 -0.11556428 0.00000000)
		(2.53072626 -0.10110810 0.00000000)
		(2.54748603 -0.08623558 0.00000000)
		(2.56424581 -0.07100797 0.00000000)
		(2.58100559 -0.05548797 0.00000000)
		(2.59776536 -0.03973947 0.00000000)
		(2.61452514 -0.02382734 0.00000000)
		(2.63128492 -0.00781710 0.00000000)
		(2.64804469 0.00822533 0.00000000)
		(2.66480447 0.02423390 0.00000000)
		(2.68156425 0.04014267 0.00000000)
		(2.69832402 0.05588615 0.00000000)
		(2.71508380 0.07139950 0.00000000)
		(2.73184358 0.08661884 0.00000000)
		(2.74860335 0.10148151 0.00000000)
		(2.76536313 0.11592631 0.00000000)
		(2.78212291 0.12989374 0.00000000)
		(2.79888268 0.14332631 0.00000000)
		(2.81564246 0.15616869 0.00000000)
		(2.83240223 0.16836801 0.00000000)
		(2.84916201 0.17987403 0.00000000)
		(2.86592179 0.19063937 0.00000000)
		(2.88268156 0.20061971 0.00000000)
		(2.89944134 0.20977394 0.00000000)
		(2.91620112 0.21806437 0.00000000)
		(2.93296089 0.22545687 0.00000000)
		(2.95166480 0.22926443 0.00000000)
		(2.97036872 0.23267120 0.00000000)
		(2.98907263 0.23567717 0.00000000)
		(3.00777654 0.23828234 0.00000000)
		(3.02648045 0.24048672 0.00000000)
		(3.04518436 0.24229030 0.00000000)
		(3.06388827 0.24369309 0.00000000)
		(3.08259218 0.24469508 0.00000000)
		(3.10129609 0.24529628 0.00000000)
		(3.12000000 0.24549667 0.00000000)
		(3.14000000 0.24549667 0.00000000)
		(3.16000000 0.24549667 0.00000000)
		(3.18000000 0.24549667 0.00000000)
		(3.20000000 0.24549667 0.00000000)
		(3.22000000 0.24549667 0.00000000)
		(3.24000000 0.24549667 0.00000000)
		(3.26000000 0.24549667 0.00000000)
		(3.28000000 0.24549667 0.00000000)
		(3.30000000 0.24549667 0.00000000)
		(3.32000000 0.24549667 0.00000000)
		(3.34000000 0.24549667 0.00000000)
		(3.36000000 0.24549667 0.00000000)
		(3.38000000 0.24549667 0.00000000)
		(3.40000000 0.24549667 0.00000000)
		(3.42000000 0.24549667 0.00000000)
		(3.44000000 0.24549667 0.00000000)
		(3.46000000 0.24549667 0.00000000)
		(3.48000000 0.24549667 0.00000000)
		(3.50000000 0.24549667 0.00000000)
		(3.52000000 0.24549667 0.00000000)
		(3.54000000 0.24549667 0.00000000)
		(3.56000000 0.24549667 0.00000000)
		(3.58000000 0.24549667 0.00000000)
		(3.60000000 0.24549667 0.00000000)
		(3.62000000 0.24549667 0.00000000)
		(3.64000000 0.24549667 0.00000000)
		(3.66000000 0.24549667 0.00000000)
		(3.68000000 0.24549667 0.00000000)
		(3.70000000 0.24549667 0.00000000)
		(3.72000000 0.24549667 0.00000000)
		(3.74000000 0.24549667 0.00000000)
		(3.76000000 0.24549667 0.00000000)
		(3.78000000 0.24549667 0.00000000)
		(3.80000000 0.24549667 0.00000000)
		(3.82000000 0.24549667 0.00000000)
		(3.84000000 0.24549667 0.00000000)
		(3.86000000 0.24549667 0.00000000)
		(3.88000000 0.24549667 0.00000000)
		(3.90000000 0.24549667 0.00000000)
		(3.92000000 0.24549667 0.00000000)
		(3.94000000 0.24549667 0.00000000)
		(3.96000000 0.24549667 0.00000000)
		(3.98000000 0.24549667 0.00000000)
		(4.00000000 0.24549667 0.00000000)
	)
	polyLine 4 5
	(
		(-1.00000000 0.15775679 0.10000000)
		(-0.98000000 0.15775679 0.10000000)
		(-0.96000000 0.15775679 0.10000000)
		(-0.94000000 0.15775679 0.10000000)
		(-0.92000000 0.15775679 0.10000000)
		(-0.90000000 0.15775679 0.10000000)
		(-0.88000000 0.15775679 0.10000000)
		(-0.86000000 0.15775679 0.10000000)
		(-0.84000000 0.15775679 0.10000000)
		(-0.82000000 0.15775679 0.10000000)
		(-0.80000000 0.15775679 0.10000000)
		(-0.78000000 0.15775679 0.10000000)
		(-0.76000000 0.15775679 0.10000000)
		(-0.74000000 0.15775679 0.10000000)
		(-0.72000000 0.15775679 0.10000000)
		(-0.70000000 0.15775679 0.10000000)
		(-0.68000000 0.15775679 0.10000000)
		(-0.66000000 0.15775679 0.10000000)
		(-0.64000000 0.15775679 0.10000000)
		(-0.62000000 0.15775679 0.10000000)
		(-0.60000000 0.15775679 0.10000000)
		(-0.58000000 0.15775679 0.10000000)
		(-0.56000000 0.15775679 0.10000000)
		(-0.54000000 0.15775679 0.10000000)
		(-0.52000000 0.15775679 0.10000000)
		(-0.50000000 0.15775679 0.10000000)
		(-0.48000000 0.15775679 0.10000000)
		(-0.46000000 0.15775679 0.10000000)
		(-0.44000000 0.15775679 0.10000000)
		(-0.42000000 0.15775679 0.10000000)
		(-0.40000000 0.15775679 0.10000000)
		(-0.38000000 0.15775679 0.10000000)
		(-0.36000000 0.15775679 0.10000000)
		(-0.34000000 0.15775679 0.10000000)
		(-0.32000000 0.15775679 0.10000000)
		(-0.30000000 0.15775679 0.10000000)
		(-0.28000000 0.15775679 0.10000000)
		(-0.26000000 0.15775679 0.10000000)
		(-0.24000000 0.15775679 0.10000000)
		(-0.22000000 0.15775679 0.10000000)
		(-0.20000000 0.15775679 0.10000000)
		(-0.18000000 0.15775679 0.10000000)
		(-0.16000000 0.15775679 0.10000000)
		(-0.14000000 0.15775679 0.10000000)
		(-0.12000000 0.15775679 0.10000000)
		(-0.10000000 0.15775679 0.10000000)
		(-0.08162011 0.15706452 0.10000000)
		(-0.06324022 0.15498772 0.10000000)
		(-0.04486034 0.15152637 0.10000000)
		(-0.02648045 0.14668050 0.10000000)
		(-0.00810056 0.14045008 0.10000000)
		(0.01027933 0.13283513 0.10000000)
		(0.02865922 0.12383564 0.10000000)
		(0.04703911 0.11345161 0.10000000)
		(0.06541899 0.10168305 0.10000000)
		(0.08379888 0.08852995 0.10000000)
		(0.10055866 0.07335251 0.10000000)
		(0.11731844 0.05787303 0.10000000)
		(0.13407821 0.04215523 0.10000000)
		(0.15083799 0.02626385 0.10000000)
		(0.16759777 0.01026433 0.10000000)
		(0.18435754 -0.00577746 0.10000000)
		(0.20111732 -0.02179547 0.10000000)
		(0.21787709 -0.03772372 0.10000000)
		(0.23463687 -0.05349664 0.10000000)
		(0.25139665 -0.06904927 0.10000000)
		(0.26815642 -0.08431757 0.10000000)
		(0.28491620 -0.09923867 0.10000000)
		(0.30167598 -0.11375113 0.10000000)
		(0.31843575 -0.12779520 0.10000000)
		(0.33519553 -0.14131303 0.10000000)
		(0.35195531 -0.15424897 0.10000000)
		(0.36871508 -0.16654975 0.10000000)
		(0.38547486 -0.17816472 0.10000000)
		(0.40223464 -0.18904605 0.10000000)
		(0.41899441 -0.19914893 0.10000000)
		(0.43575419 -0.20843177 0.10000000)
		(0.45251397 -0.21685633 0.10000000)
		(0.46927374 -0.22438794 0.10000000)
		(0.48603352 -0.23099557 0.10000000)
		(0.50279330 -0.23665201 0.10000000)
		(0.51955307 -0.24133398 0.10000000)
		(0.53631285 -0.24502219 0.10000000)
		(0.55307263 -0.24770147 0.10000000)
		(0.56983240 -0.24936076 0.10000000)
		(0.58659218 -0.24999325 0.10000000)
		(0.60335196 -0.24959633 0.10000000)
		(0.62011173 -0.24817164 0.10000000)
		(0.63687151 -0.24572503 0.10000000)
		(0.65363128 -0.24226658 0.10000000)
		(0.67039106 -0.23781054 0.10000000)
		(0.68715084 -0.23237525 0.10000000)
		(0.70391061 -0.22598310 0.10000000)
		(0.72067039 -0.21866041 0.10000000)
		(0.73743017 -0.21043732 0.10000000)
		(0.75418994 -0.20134771 0.10000000)
		(0.77094972 -0.19142899 0.10000000)
		(0.78770950 -0.18072202 0.10000000)
		(0.80446927 -0.16927087 0.10000000)
		(0.82122905 -0.15712271 0.10000000)
		(0.83798883 -0.14432756 0.10000000)
		(0.85474860 -0.13093810 0.10000000)
		(0.87150838 -0.11700947 0.10000000)
		(0.88826816 -0.10259902 0.10000000)
		(0.90502793 -0.08776609 0.10000000)
		(0.92178771 -0.07257177 0.10000000)
		(0.93854749 -0.05707861 0.10000000)
		(0.95530726 -0.04135042 0.10000000)
		(0.97206704 -0.02545195 0.10000000)
		(0.98882682 -0.00944868 0.10000000)
		(1.00558659 0.00659349 0.10000000)
		(1.02234637 0.02260852 0.10000000)
		(1.03910615 0.03853045 0.10000000)
		(1.05586592 0.05429372 0.10000000)
		(1.07262570 0.06983343 0.10000000)
		(1.08938547 0.08508557 0.10000000)
		(1.10614525 0.09998735 0.10000000)
		(1.12290503 0.11447742 0.10000000)
		(1.13966480 0.12849609 0.10000000)
		(1.15642458 0.14198564 0.10000000)
		(1.17318436 0.15489053 0.10000000)
		(1.18994413 0.16715762 0.10000000)
		(1.20670391 0.17873640 0.10000000)
		(1.22346369 0.18957918 0.10000000)
		(1.24022346 0.19964132 0.10000000)
		(1.25698324 0.20888139 0.10000000)
		(1.27374302 0.21726133 0.10000000)
		(1.29050279 0.22474665 0.10000000)
		(1.30726257 0.23130651 0.10000000)
		(1.32402235 0.23691391 0.10000000)
		(1.34078212 0.24154575 0.10000000)
		(1.35754190 0.24518297 0.10000000)
		(1.37430168 0.24781058 0.10000000)
		(1.39106145 0.24941777 0.10000000)
		(1.40782123 0.24999792 0.10000000)
		(1.42458101 0.24954863 0.10000000)
		(1.44134078 0.24807177 0.10000000)
		(1.45810056 0.24557341 0.10000000)
		(1.47486034 0.24206383 0.10000000)
		(1.49162011 0.23755750 0.10000000)
		(1.50837989 0.23207296 0.10000000)
		(1.52513966 0.22563280 0.10000000)
		(1.54189944 0.21826354 0.10000000)
		(1.55865922 0.20999552 0.10000000)
		(1.57541899 0.20086279 0.10000000)
		(1.59217877 0.19090296 0.10000000)
		(1.60893855 0.18015703 0.10000000)
		(1.62569832 0.16866927 0.10000000)
		(1.64245810 0.15648696 0.10000000)
		(1.65921788 0.14366028 0.10000000)
		(1.67597765 0.13024204 0.10000000)
		(1.69273743 0.11628749 0.10000000)
		(1.70949721 0.10185410 0.10000000)
		(1.72625698 0.08700130 0.10000000)
		(1.74301676 0.07179025 0.10000000)
		(1.75977654 0.05628359 0.10000000)
		(1.77653631 0.04054516 0.10000000)
		(1.79329609 0.02463978 0.10000000)
		(1.81005587 0.00863294 0.10000000)
		(1.82681564 -0.00740945 0.10000000)
		(1.84357542 -0.02342133 0.10000000)
		(1.86033520 -0.03933677 0.10000000)
		(1.87709497 -0.05509023 0.10000000)
		(1.89385475 -0.07061684 0.10000000)
		(1.91061453 -0.08585267 0.10000000)
		(1.92737430 -0.10073497 0.10000000)
		(1.94413408 -0.11520248 0.10000000)
		(1.96089385 -0.12919560 0.10000000)
		(1.97765363 -0.14265674 0.10000000)
		(1.99441341 -0.15553044 0.10000000)
		(2.01117318 -0.16776371 0.10000000)
		(2.02793296 -0.17930617 0.10000000)
		(2.04469274 -0.19011029 0.10000000)
		(2.06145251 -0.20013158 0.10000000)
		(2.07821229 -0.20932878 0.10000000)
		(2.09497207 -0.21766401 0.10000000)
		(2.11173184 -0.22510296 0.10000000)
		(2.12849162 -0.23161499 0.10000000)
		(2.14525140 -0.23717328 0.10000000)
		(2.16201117 -0.24175495 0.10000000)
		(2.17877095 -0.24534113 0.10000000)
		(2.19553073 -0.24791705 0.10000000)
		(2.21229050 -0.24947212 0.10000000)
		(2.22905028 -0.24999992 0.10000000)
		(2.24581006 -0.24949828 0.10000000)
		(2.26256983 -0.24796926 0.10000000)
		(2.27932961 -0.24541917 0.10000000)
		(2.29608939 -0.24185850 0.10000000)
		(2.31284916 -0.23730192 0.10000000)
		(2.32960894 -0.23176818 0.10000000)
		(2.34636872 -0.22528008 0.10000000)
		(2.36312849 -0.21786434 0.10000000)
		(2.37988827 -0.20955147 0.10000000)
		(2.39664804 -0.20037573 0.10000000)
		(2.41340782 -0.19037489 0.10000000)
		(2.43016760 -0.17959013 0.10000000)
		(2.44692737 -0.16806586 0.10000000)
		(2.46368715 -0.15584954 0.10000000)
		(2.48044693 -0.14299146 0.10000000)
		(2.49720670 -0.12954459 0.10000000)
		(2.51396648 -0.11556428 0.10000000)
		(2.53072626 -0.10110810 0.10000000)
		(2.54748603 -0.08623558 0.10000000)
		(2.56424581 -0.07100797 0.10000000)
		(2.58100559 -0.05548797 0.10000000)
		(2.59776536 -0.03973947 0.10000000)
		(2.61452514 -0.02382734 0.10000000)
		(2.63128492 -0.00781710 0.10000000)
		(2.64804469 0.00822533 0.10000000)
		(2.66480447 0.02423390 0.10000000)
		(2.68156425 0.04014267 0.10000000)
		(2.69832402 0.05588615 0.10000000)
		(2.71508380 0.07139950 0.10000000)
		(2.73184358 0.08661884 0.10000000)
		(2.74860335 0.10148151 0.10000000)
		(2.76536313 0.11592631 0.10000000)
		(2.78212291 0.12989374 0.10000000)
		(2.79888268 0.14332631 0.10000000)
		(2.81564246 0.15616869 0.10000000)
		(2.83240223 0.16836801 0.10000000)
		(2.84916201 0.17987403 0.10000000)
		(2.86592179 0.19063937 0.10000000)
		(2.88268156 0.20061971 0.10000000)
		(2.89944134 0.20977394 0.10000000)
		(2.91620112 0.21806437 0.10000000)
		(2.93296089 0.22545687 0.10000000)
		(2.95166480 0.22926443 0.10000000)
		(2.97036872 0.23267120 0.10000000)
		(2.98907263 0.23567717 0.10000000)
		(3.00777654 0.23828234 0.10000000)
		(3.02648045 0.24048672 0.10000000)
		(3.04518436 0.24229030 0.10000000)
		(3.06388827 0.24369309 0.10000000)
		(3.08259218 0.24469508 0.10000000)
		(3.10129609 0.24529628 0.10000000)
		(3.12000000 0.24549667 0.10000000)
		(3.14000000 0.24549667 0.10000000)
		(3.16000000 0.24549667 0.10000000)
		(3.18000000 0.24549667 0.10000000)
		(3.20000000 0.24549667 0.10000000)
		(3.22000000 0.24549667 0.10000000)
		(3.24000000 0.24549667 0.10000000)
		(3.26000000 0.24549667 0.10000000)
		(3.28000000 0.24549667 0.10000000)
		(3.30000000 0.24549667 0.10000000)
		(3.32000000 0.24549667 0.10000000)
		(3.34000000 0.24549667 0.10000000)
		(3.36000000 0.24549667 0.10000000)
		(3.38000000 0.24549667 0.10000000)
		(3.40000000 0.24549667 0.10000000)
		(3.42000000 0.24549667 0.10000000)
		(3.44000000 0.24549667 0.10000000)
		(3.46000000 0.24549667 0.10000000)
		(3.48000000 0.24549667 0.10000000)
		(3.50000000 0.24549667 0.10000000)
		(3.52000000 0.24549667 0.10000000)
		(3.54000000 0.24549667 0.10000000)
		(3.56000000 0.24549667 0.10000000)
		(3.58000000 0.24549667 0.10000000)
		(3.60000000 0.24549667 0.10000000)
		(3.62000000 0.24549667 0.10000000)
		(3.64000000 0.24549667 0.10000000)
		(3.66000000 0.24549667 0.10000000)
		(3.68000000 0.24549667 0.10000000)
		(3.70000000 0.24549667 0.10000000)
		(3.72000000 0.24549667 0.10000000)
		(3.74000000 0.24549667 0.10000000)
		(3.76000000 0.24549667 0.10000000)
		(3.78000000 0.24549667 0.10000000)
		(3.80000000 0.24549667 0.10000000)
		(3.82000000 0.24549667 0.10000000)
		(3.84000000 0.24549667 0.10000000)
		(3.86000000 0.24549667 0.10000000)
		(3.88000000 0.24549667 0.10000000)
		(3.90000000 0.24549667 0.10000000)
		(3.92000000 0.24549667 0.10000000)
		(3.94000000 0.24549667 0.10000000)
		(3.96000000 0.24549667 0.10000000)
		(3.98000000 0.24549667 0.10000000)
		(4.00000000 0.24549667 0.10000000)
	)
	polyLine 3 2
	(
		(-1.00000000 0.65775679 0.00000000)
		(-0.98000000 0.66083904 0.00000000)
		(-0.96000000 0.66392129 0.00000000)
		(-0.94000000 0.66700354 0.00000000)
		(-0.92000000 0.67008580 0.00000000)
		(-0.90000000 0.67316805 0.00000000)
		(-0.88000000 0.67625030 0.00000000)
		(-0.86000000 0.67933255 0.00000000)
		(-0.84000000 0.68241480 0.00000000)
		(-0.82000000 0.68549705 0.00000000)
		(-0.80000000 0.68857931 0.00000000)
		(-0.78000000 0.69166156 0.00000000)
		(-0.76000000 0.69474381 0.00000000)
		(-0.74000000 0.69782606 0.00000000)
		(-0.72000000 0.70090831 0.00000000)
		(-0.70000000 0.70399056 0.00000000)
		(-0.68000000 0.70707282 0.00000000)
		(-0.66000000 0.71015507 0.00000000)
		(-0.64000000 0.71323732 0.00000000)
		(-0.62000000 0.71631957 0.00000000)
		(-0.60000000 0.71940182 0.00000000)
		(-0.58000000 0.72248408 0.00000000)
		(-0.56000000 0.72556633 0.00000000)
		(-0.54000000 0.72864858 0.00000000)
		(-0.52000000 0.73173083 0.00000000)
		(-0.50000000 0.73481308 0.00000000)
		(-0.48000000 0.73789533 0.00000000)
		(-0.46000000 0.74097759 0.00000000)
		(-0.44000000 0.74405984 0.00000000)
		(-0.42000000 0.74714209 0.00000000)
		(-0.40000000 0.75022434 0.00000000)
		(-0.38000000 0.75330659 0.00000000)
		(-0.36000000 0.75638884 0.00000000)
		(-0.34000000 0.75947110 0.00000000)
		(-0.32000000 0.76255335 0.00000000)
		(-0.30000000 0.76563560 0.00000000)
		(-0.28000000 0.76871785 0.00000000)
		(-0.26000000 0.77180010 0.00000000)
		(-0.24000000 0.77488235 0.00000000)
		(-0.22000000 0.77796461 0.00000000)
		(-0.20000000 0.78104686 0.00000000)
		(-0.18000000 0.78412911 0.00000000)
		(-0.16000000 0.78721136 0.00000000)
		(-0.14000000 0.79029361 0.00000000)
		(-0.12000000 0.79337586 0.00000000)
		(-0.10000000 0.79645812 0.00000000)
		(-0.08162011 0.79951939 0.00000000)
		(-0.06324022 0.79916320 0.00000000)
		(-0.04486034 0.79538955 0.00000000)
		(-0.02648045 0.78819845 0.00000000)
		(-0.00810056 0.77758988 0.00000000)
		(0.01027933 0.76356385 0.00000000)
		(0.02865922 0.74612037 0.00000000)
		(0.04703911 0.72525942 0.00000000)
		(0.06541899 0.70098101 0.00000000)
		(0.08379888 0.67328515 0.00000000)
		(0.10055866 0.64357741 0.00000000)
		(0.11731844 0.61327845 0.00000000)
		(0.13407821 0.58251304 0.00000000)
		(0.15083799 0.55140787 0.00000000)
		(0.16759777 0.52009100 0.00000000)
		(0.18435754 0.48869141 0.00000000)
		(0.20111732 0.45733839 0.00000000)
		(0.21787709 0.42616103 0.00000000)
		(0.23463687 0.39528772 0.00000000)
		(0.25139665 0.36484560 0.00000000)
		(0.26815642 0.33496001 0.00000000)
		(0.28491620 0.30575401 0.00000000)
		(0.30167598 0.27734787 0.00000000)
		(0.31843575 0.24985856 0.00000000)
		(0.33519553 0.22339926 0.00000000)
		(0.35195531 0.19807895 0.00000000)
		(0.36871508 0.17400187 0.00000000)
		(0.38547486 0.15126717 0.00000000)
		(0.40223464 0.12996847 0.00000000)
		(0.41899441 0.11019348 0.00000000)
		(0.43575419 0.09202360 0.00000000)
		(0.45251397 0.07553368 0.00000000)
		(0.46927374 0.06079161 0.00000000)
		(0.48603352 0.04785809 0.00000000)
		(0.50279330 0.03678638 0.00000000)
		(0.51955307 0.02762207 0.00000000)
		(0.53631285 0.02040290 0.00000000)
		(0.55307263 0.01515860 0.00000000)
		(0.56983240 0.01191075 0.00000000)
		(0.58659218 0.01067274 0.00000000)
		(0.60335196 0.01144966 0.00000000)
		(0.62011173 0.01423831 0.00000000)
		(0.63687151 0.01902721 0.00000000)
		(0.65363128 0.02579664 0.00000000)
		(0.67039106 0.03451872 0.00000000)
		(0.68715084 0.04515754 0.00000000)
		(0.70391061 0.05766929 0.00000000)
		(0.72067039 0.07200246 0.00000000)
		(0.73743017 0.08809801 0.00000000)
		(0.75418994 0.10588968 0.00000000)
		(0.77094972 0.12530419 0.00000000)
		(0.78770950 0.14626162 0.00000000)
		(0.80446927 0.16867565 0.00000000)
		(0.82122905 0.19245400 0.00000000)
		(0.83798883 0.21749874 0.00000000)
		(0.85474860 0.24370676 0.00000000)
		(0.87150838 0.27097013 0.00000000)
		(0.88826816 0.29917659 0.00000000)
		(0.90502793 0.32820999 0.00000000)
		(0.92178771 0.35795079 0.00000000)
		(0.93854749 0.38827650 0.00000000)
		(0.95530726 0.41906227 0.00000000)
		(0.97206704 0.45018132 0.00000000)
		(0.98882682 0.48150551 0.00000000)
		(1.00558659 0.51290585 0.00000000)
		(1.02234637 0.54425306 0.00000000)
		(1.03910615 0.57541803 0.00000000)
		(1.05586592 0.60627246 0.00000000)
		(1.07262570 0.63668928 0.00000000)
		(1.08938547 0.66654325 0.00000000)
		(1.10614525 0.69571143 0.00000000)
		(1.12290503 0.72407373 0.00000000)
		(1.13966480 0.75151334 0.00000000)
		(1.15642458 0.77791728 0.00000000)
		(1.17318436 0.80317682 0.00000000)
		(1.18994413 0.82718795 0.00000000)
		(1.20670391 0.84985181 0.00000000)
		(1.22346369 0.87107506 0.00000000)
		(1.24022346 0.89077031 0.00000000)
		(1.25698324 0.90885646 0.00000000)
		(1.27374302 0.92525905 0.00000000)
		(1.29050279 0.93991051 0.00000000)
		(1.30726257 0.95275054 0.00000000)
		(1.32402235 0.96372625 0.00000000)
		(1.34078212 0.97279244 0.00000000)
		(1.35754190 0.97991179 0.00000000)
		(1.37430168 0.98505498 0.00000000)
		(1.39106145 0.98820083 0.00000000)
		(1.40782123 0.98933639 0.00000000)
		(1.42458101 0.98845698 0.00000000)
		(1.44134078 0.98556622 0.00000000)
		(1.45810056 0.98067602 0.00000000)
		(1.47486034 0.97380651 0.00000000)
		(1.49162011 0.96498598 0.00000000)
		(1.50837989 0.95425075 0.00000000)
		(1.52513966 0.94164503 0.00000000)
		(1.54189944 0.92722072 0.00000000)
		(1.55865922 0.91103722 0.00000000)
		(1.57541899 0.89316116 0.00000000)
		(1.59217877 0.87366617 0.00000000)
		(1.60893855 0.85263250 0.00000000)
		(1.62569832 0.83014679 0.00000000)
		(1.64245810 0.80630160 0.00000000)
		(1.65921788 0.78119515 0.00000000)
		(1.67597765 0.75493080 0.00000000)
		(1.69273743 0.72761670 0.00000000)
		(1.70949721 0.69936534 0.00000000)
		(1.72625698 0.67029303 0.00000000)
		(1.74301676 0.64051950 0.00000000)
		(1.75977654 0.61016735 0.00000000)
		(1.77653631 0.57936155 0.00000000)
		(1.79329609 0.54822897 0.00000000)
		(1.81005587 0.51689778 0.00000000)
		(1.82681564 0.48549702 0.00000000)
		(1.84357542 0.45415597 0.00000000)
		(1.86033520 0.42300370 0.00000000)
		(1.87709497 0.39216849 0.00000000)
		(1.89385475 0.36177729 0.00000000)
		(1.91061453 0.33195527 0.00000000)
		(1.92737430 0.30282521 0.00000000)
		(1.94413408 0.27450707 0.00000000)
		(1.96089385 0.24711745 0.00000000)
		(1.97765363 0.22076915 0.00000000)
		(1.99441341 0.19557065 0.00000000)
		(2.01117318 0.17162571 0.00000000)
		(2.02793296 0.14903294 0.00000000)
		(2.04469274 0.12788537 0.00000000)
		(2.06145251 0.10827007 0.00000000)
		(2.07821229 0.09026783 0.00000000)
		(2.09497207 0.07395276 0.00000000)
		(2.11173184 0.05939205 0.00000000)
		(2.12849162 0.04664566 0.00000000)
		(2.14525140 0.03576607 0.00000000)
		(2.16201117 0.02679809 0.00000000)
		(2.17877095 0.01977863 0.00000000)
		(2.19553073 0.01473661 0.00000000)
		(2.21229050 0.01169279 0.00000000)
		(2.22905028 0.01065970 0.00000000)
		(2.24581006 0.01164159 0.00000000)
		(2.26256983 0.01463443 0.00000000)
		(2.27932961 0.01962588 0.00000000)
		(2.29608939 0.02659539 0.00000000)
		(2.31284916 0.03551428 0.00000000)
		(2.32960894 0.04634580 0.00000000)
		(2.34636872 0.05904536 0.00000000)
		(2.36312849 0.07356066 0.00000000)
		(2.37988827 0.08983194 0.00000000)
		(2.39664804 0.10779219 0.00000000)
		(2.41340782 0.12736745 0.00000000)
		(2.43016760 0.14847713 0.00000000)
		(2.44692737 0.17103429 0.00000000)
		(2.46368715 0.19494606 0.00000000)
		(2.48044693 0.22011396 0.00000000)
		(2.49720670 0.24643437 0.00000000)
		(2.51396648 0.27379889 0.00000000)
		(2.53072626 0.30209486 0.00000000)
		(2.54748603 0.33120576 0.00000000)