/*--------------------------------*- C++ -*----------------------------------*\\
/*--------------------------------*- C++ -*----------------------------------*\\
| =========                 |                                                 |
| \\\\      /  F ield         | OpenFOAM: The Open Source CFD Toolbox           |
|  \\\\    /   O peration     | Version:  v2012                                 |
|   \\\\  /    A nd           | Website:  www.openfoam.com                      |
|    \\\\/     M anipulation  |                                                 |
\\*---------------------------------------------------------------------------*/
FoamFile
{
    version     2.0;
    format      ascii;
    class       dictionary;
    object      blockMeshDict;
}
// * * * * * * * * * * * * * * * * * * * * * * * * * * * * * * * * * * * * * //

scale   0.01;

xmin -1;
xmax 5;
ymin 0;
ymax 0.5;
zmin 0;
zmax 0.1;

vertices
(
    (-1.00000000 -0.00700747 0.00000000)
    (4.00000000 -0.05295879 0.00000000)
    (4.00000000 0.44704121 0.00000000)
    (-1.00000000 0.49299253 0.00000000)
    (-1.00000000 -0.00700747 0.10000000)
    (4.00000000 -0.05295879 0.10000000)
    (4.00000000 0.44704121 0.10000000)
    (-1.00000000 0.49299253 0.10000000)
);

blocks
(
    hex (0 1 2 3 4 5 6 7) (200 20 1) simpleGrading (1 1 1)
);

edges
(
	polyLine 0 1
	(
		(-1.00000000 -0.00700747 0.00000000)
		(-0.98000000 -0.00700747 0.00000000)
		(-0.96000000 -0.00700747 0.00000000)
		(-0.94000000 -0.00700747 0.00000000)
		(-0.92000000 -0.00700747 0.00000000)
		(-0.90000000 -0.00700747 0.00000000)
		(-0.88000000 -0.00700747 0.00000000)
		(-0.86000000 -0.00700747 0.00000000)
		(-0.84000000 -0.00700747 0.00000000)
		(-0.82000000 -0.00700747 0.00000000)
		(-0.80000000 -0.00700747 0.00000000)
		(-0.78000000 -0.00700747 0.00000000)
		(-0.76000000 -0.00700747 0.00000000)
		(-0.74000000 -0.00700747 0.00000000)
		(-0.72000000 -0.00700747 0.00000000)
		(-0.70000000 -0.00700747 0.00000000)
		(-0.68000000 -0.00700747 0.00000000)
		(-0.66000000 -0.00700747 0.00000000)
		(-0.64000000 -0.00700747 0.00000000)
		(-0.62000000 -0.00700747 0.00000000)
		(-0.60000000 -0.00700747 0.00000000)
		(-0.58000000 -0.00700747 0.00000000)
		(-0.56000000 -0.00700747 0.00000000)
		(-0.54000000 -0.00700747 0.00000000)
		(-0.52000000 -0.00700747 0.00000000)
		(-0.50000000 -0.00700747 0.00000000)
		(-0.48000000 -0.00700747 0.00000000)
		(-0.46000000 -0.00700747 0.00000000)
		(-0.44000000 -0.00700747 0.00000000)
		(-0.42000000 -0.00700747 0.00000000)
		(-0.40000000 -0.00700747 0.00000000)
		(-0.38000000 -0.00700747 0.00000000)
		(-0.36000000 -0.00700747 0.00000000)
		(-0.34000000 -0.00700747 0.00000000)
		(-0.32000000 -0.00700747 0.00000000)
		(-0.30000000 -0.00700747 0.00000000)
		(-0.28000000 -0.00700747 0.00000000)
		(-0.26000000 -0.00700747 0.00000000)
		(-0.24000000 -0.00700747 0.00000000)
		(-0.22000000 -0.00700747 0.00000000)
		(-0.20000000 -0.00700747 0.00000000)
		(-0.18000000 -0.00700747 0.00000000)
		(-0.16000000 -0.00700747 0.00000000)
		(-0.14000000 -0.00700747 0.00000000)
		(-0.12000000 -0.00700747 0.00000000)
		(-0.10000000 -0.00700747 0.00000000)
		(-0.08162011 -0.00592375 0.00000000)
		(-0.06324022 -0.00267257 0.00000000)
		(-0.04486034 0.00274605 0.00000000)
		(-0.02648045 0.01033212 0.00000000)
		(-0.00810056 0.02008564 0.00000000)
		(0.01027933 0.03200660 0.00000000)
		(0.02865922 0.04609502 0.00000000)
		(0.04703911 0.06235088 0.00000000)
		(0.06541899 0.08077419 0.00000000)
		(0.08379888 0.10136495 0.00000000)
		(0.10055866 0.12129846 0.00000000)
		(0.11731844 0.14026958 0.00000000)
		(0.13407821 0.15812778 0.00000000)
		(0.15083799 0.17473139 0.00000000)
		(0.16759777 0.18994865 0.00000000)
		(0.18435754 0.20365884 0.00000000)
		(0.20111732 0.21575318 0.00000000)
		(0.21787709 0.22613571 0.00000000)
		(0.23463687 0.23472406 0.00000000)
		(0.25139665 0.24145008 0.00000000)
		(0.26815642 0.24626041 0.00000000)
		(0.28491620 0.24911689 0.00000000)
		(0.30167598 0.24999684 0.00000000)
		(0.31843575 0.24889330 0.00000000)
		(0.33519553 0.24581501 0.00000000)
		(0.35195531 0.24078639 0.00000000)
		(0.36871508 0.23384736 0.00000000)
		(0.38547486 0.22505295 0.00000000)
		(0.40223464 0.21447295 0.00000000)
		(0.41899441 0.20219129 0.00000000)
		(0.43575419 0.18830544 0.00000000)
		(0.45251397 0.17292554 0.00000000)
		(0.46927374 0.15617364 0.00000000)
		(0.48603352 0.13818264 0.00000000)
		(0.50279330 0.11909528 0.00000000)
		(0.51955307 0.09906301 0.00000000)
		(0.53631285 0.07824476 0.00000000)
		(0.55307263 0.05680571 0.00000000)
		(0.56983240 0.03491595 0.00000000)
		(0.58659218 0.01274917 0.00000000)
		(0.60335196 -0.00951876 0.00000000)
		(0.62011173 -0.03171117 0.00000000)
		(0.63687151 -0.05365198 0.00000000)
		(0.65363128 -0.07516711 0.00000000)
		(0.67039106 -0.09608586 0.00000000)
		(0.68715084 -0.11624225 0.00000000)
		(0.70391061 -0.13547636 0.00000000)
		(0.72067039 -0.15363559 0.00000000)
		(0.73743017 -0.17057586 0.00000000)
		(0.75418994 -0.18616276 0.00000000)
		(0.77094972 -0.20027262 0.00000000)
		(0.78770950 -0.21279351 0.00000000)
		(0.80446927 -0.22362606 0.00000000)
		(0.82122905 -0.23268435 0.00000000)
		(0.83798883 -0.23989649 0.00000000)
		(0.85474860 -0.24520526 0.00000000)
		(0.87150838 -0.24856856 0.00000000)
		(0.88826816 -0.24995968 0.00000000)
		(0.90502793 -0.24936760 0.00000000)
		(0.92178771 -0.24679701 0.00000000)
		(0.93854749 -0.24226830 0.00000000)
		(0.95530726 -0.23581742 0.00000000)
		(0.97206704 -0.22749553 0.00000000)
		(0.98882682 -0.21736867 0.00000000)
		(1.00558659 -0.20551718 0.00000000)
		(1.02234637 -0.19203510 0.00000000)
		(1.03910615 -0.17702939 0.00000000)
		(1.05586592 -0.16061911 0.00000000)
		(1.07262570 -0.14293447 0.00000000)
		(1.08938547 -0.12411576 0.00000000)
		(1.10614525 -0.10431231 0.00000000)
		(1.12290503 -0.08368123 0.00000000)
		(1.13966480 -0.06238622 0.00000000)
		(1.15642458 -0.04059623 0.00000000)
		(1.17318436 -0.01848414 0.00000000)
		(1.18994413 0.00377460 0.00000000)
		(1.20670391 0.02600339 0.00000000)
		(1.22346369 0.04802587 0.00000000)
		(1.24022346 0.06966731 0.00000000)
		(1.25698324 0.09075600 0.00000000)
		(1.27374302 0.11112462 0.00000000)
		(1.29050279 0.13061157 0.00000000)
		(1.30726257 0.14906223 0.00000000)
		(1.32402235 0.16633021 0.00000000)
		(1.34078212 0.18227852 0.00000000)
		(1.35754190 0.19678060 0.00000000)
		(1.37430168 0.20972141 0.00000000)
		(1.39106145 0.22099827 0.00000000)
		(1.40782123 0.23052171 0.00000000)
		(1.42458101 0.23821616 0.00000000)
		(1.44134078 0.24402057 0.00000000)
		(1.45810056 0.24788891 0.00000000)
		(1.47486034 0.24979047 0.00000000)
		(1.49162011 0.24971016 0.00000000)
		(1.50837989 0.24764862 0.00000000)
		(1.52513966 0.24362222 0.00000000)
		(1.54189944 0.23766289 0.00000000)
		(1.55865922 0.22981792 0.00000000)
		(1.57541899 0.22014955 0.00000000)
		(1.59217877 0.20873449 0.00000000)
		(1.60893855 0.19566331 0.00000000)
		(1.62569832 0.18103972 0.00000000)
		(1.64245810 0.16497973 0.00000000)
		(1.65921788 0.14761078 0.00000000)
		(1.67597765 0.12907067 0.00000000)
		(1.69273743 0.10950650 0.00000000)
		(1.70949721 0.08907350 0.00000000)
		(1.72625698 0.06793378 0.00000000)
		(1.74301676 0.04625506 0.00000000)
		(1.75977654 0.02420935 0.00000000)
		(1.77653631 0.00197156 0.00000000)
		(1.79329609 -0.02028187 0.00000000)
		(1.81005587 -0.04237439 0.00000000)
		(1.82681564 -0.06413070 0.00000000)
		(1.84357542 -0.08537819 0.00000000)
		(1.86033520 -0.10594828 0.00000000)
		(1.87709497 -0.12567777 0.00000000)
		(1.89385475 -0.14441012 0.00000000)
		(1.91061453 -0.16199670 0.00000000)
		(1.92737430 -0.17829798 0.00000000)
		(1.94413408 -0.19318463 0.00000000)
		(1.96089385 -0.20653853 0.00000000)
		(1.97765363 -0.21825373 0.00000000)
		(1.99441341 -0.22823728 0.00000000)
		(2.01117318 -0.23640998 0.00000000)
		(2.02793296 -0.24270697 0.00000000)
		(2.04469274 -0.24707830 0.00000000)
		(2.06145251 -0.24948929 0.00000000)
		(2.07821229 -0.24992080 0.00000000)
		(2.09497207 -0.24836941 0.00000000)
		(2.11173184 -0.24484743 0.00000000)
		(2.12849162 -0.23938281 0.00000000)
		(2.14525140 -0.23201890 0.00000000)
		(2.16201117 -0.22281413 0.00000000)
		(2.17877095 -0.21184153 0.00000000)
		(2.19553073 -0.19918815 0.00000000)
		(2.21229050 -0.18495440 0.00000000)
		(2.22905028 -0.16925319 0.00000000)
		(2.24581006 -0.15220912 0.00000000)
		(2.26256983 -0.13395740 0.00000000)
		(2.27932961 -0.11464285 0.00000000)
		(2.29608939 -0.09441871 0.00000000)
		(2.31284916 -0.07344544 0.00000000)
		(2.32960894 -0.05188945 0.00000000)
		(2.34636872 -0.02992176 0.00000000)
		(2.36312849 -0.00771667 0.00000000)
		(2.37988827 0.01454964 0.00000000)
		(2.39664804 0.03670052 0.00000000)
		(2.41340782 0.05856021 0.00000000)
		(2.43016760 0.07995528 0.00000000)
		(2.44692737 0.10071597 0.00000000)
		(2.46368715 0.12067758 0.00000000)
		(2.48044693 0.13968171 0.00000000)
		(2.49720670 0.15757760 0.00000000)
		(2.51396648 0.17422325 0.00000000)
		(2.53072626 0.18948659 0.00000000)
		(2.54748603 0.20324652 0.00000000)
		(2.56424581 0.21539388 0.00000000)
		(2.58100559 0.22583228 0.00000000)
		(2.59776536 0.23447890 0.00000000)
		(2.61452514 0.24126514 0.00000000)
		(2.63128492 0.24613716 0.00000000)
		(2.64804469 0.24905630 0.00000000)
		(2.66480447 0.24999940 0.00000000)
		(2.68156425 0.24895898 0.00000000)
		(2.69832402 0.24594329 0.00000000)
		(2.71508380 0.24097627 0.00000000)
		(2.73184358 0.23409731 0.00000000)
		(2.74860335 0.22536100 0.00000000)
		(2.76536313 0.21483665 0.00000000)
		(2.78212291 0.20260776 0.00000000)
		(2.79888268 0.18877137 0.00000000)
		(2.81564246 0.17343724 0.00000000)
		(2.83240223 0.15672704 0.00000000)
		(2.84916201 0.13877335 0.00000000)
		(2.86592179 0.11971863 0.00000000)
		(2.88268156 0.09971404 0.00000000)
		(2.89944134 0.07891830 0.00000000)
		(2.91620112 0.05749643 0.00000000)
		(2.93296089 0.03561837 0.00000000)
		(2.95166480 0.01878871 0.00000000)
		(2.97036872 0.00373059 0.00000000)
		(2.98907263 -0.00955598 0.00000000)
		(3.00777654 -0.02107101 0.00000000)
		(3.02648045 -0.03081450 0.00000000)
		(3.04518436 -0.03878644 0.00000000)
		(3.06388827 -0.04498684 0.00000000)
		(3.08259218 -0.04941570 0.00000000)
		(3.10129609 -0.05207302 0.00000000)
		(3.12000000 -0.05295879 0.00000000)
		(3.14000000 -0.05295879 0.00000000)
		(3.16000000 -0.05295879 0.00000000)
		(3.18000000 -0.05295879 0.00000000)
		(3.20000000 -0.05295879 0.00000000)
		(3.22000000 -0.05295879 0.00000000)
		(3.24000000 -0.05295879 0.00000000)
		(3.26000000 -0.05295879 0.00000000)
		(3.28000000 -0.05295879 0.00000000)
		(3.30000000 -0.05295879 0.00000000)
		(3.32000000 -0.05295879 0.00000000)
		(3.34000000 -0.05295879 0.00000000)
		(3.36000000 -0.05295879 0.00000000)
		(3.38000000 -0.05295879 0.00000000)
		(3.40000000 -0.05295879 0.00000000)
		(3.42000000 -0.05295879 0.00000000)
		(3.44000000 -0.05295879 0.00000000)
		(3.46000000 -0.05295879 0.00000000)
		(3.48000000 -0.05295879 0.00000000)
		(3.50000000 -0.05295879 0.00000000)
		(3.52000000 -0.05295879 0.00000000)
		(3.54000000 -0.05295879 0.00000000)
		(3.56000000 -0.05295879 0.00000000)
		(3.58000000 -0.05295879 0.00000000)
		(3.60000000 -0.05295879 0.00000000)
		(3.62000000 -0.05295879 0.00000000)
		(3.64000000 -0.05295879 0.00000000)
		(3.66000000 -0.05295879 0.00000000)
		(3.68000000 -0.05295879 0.00000000)
		(3.70000000 -0.05295879 0.00000000)
		(3.72000000 -0.05295879 0.00000000)
		(3.74000000 -0.05295879 0.00000000)
		(3.76000000 -0.05295879 0.00000000)
		(3.78000000 -0.05295879 0.00000000)
		(3.80000000 -0.05295879 0.00000000)
		(3.82000000 -0.05295879 0.00000000)
		(3.84000000 -0.05295879 0.00000000)
		(3.86000000 -0.05295879 0.00000000)
		(3.88000000 -0.05295879 0.00000000)
		(3.90000000 -0.05295879 0.00000000)
		(3.92000000 -0.05295879 0.00000000)
		(3.94000000 -0.05295879 0.00000000)
		(3.96000000 -0.05295879 0.00000000)
		(3.98000000 -0.05295879 0.00000000)
		(4.00000000 -0.05295879 0.00000000)
	)
	polyLine 4 5
	(
		(-1.00000000 -0.00700747 0.10000000)
		(-0.98000000 -0.00700747 0.10000000)
		(-0.96000000 -0.00700747 0.10000000)
		(-0.94000000 -0.00700747 0.10000000)
		(-0.92000000 -0.00700747 0.10000000)
		(-0.90000000 -0.00700747 0.10000000)
		(-0.88000000 -0.00700747 0.10000000)
		(-0.86000000 -0.00700747 0.10000000)
		(-0.84000000 -0.00700747 0.10000000)
		(-0.82000000 -0.00700747 0.10000000)
		(-0.80000000 -0.00700747 0.10000000)
		(-0.78000000 -0.00700747 0.10000000)
		(-0.76000000 -0.00700747 0.10000000)
		(-0.74000000 -0.00700747 0.10000000)
		(-0.72000000 -0.00700747 0.10000000)
		(-0.70000000 -0.00700747 0.10000000)
		(-0.68000000 -0.00700747 0.10000000)
		(-0.66000000 -0.00700747 0.10000000)
		(-0.64000000 -0.00700747 0.10000000)
		(-0.62000000 -0.00700747 0.10000000)
		(-0.60000000 -0.00700747 0.10000000)
		(-0.58000000 -0.00700747 0.10000000)
		(-0.56000000 -0.00700747 0.10000000)
		(-0.54000000 -0.00700747 0.10000000)
		(-0.52000000 -0.00700747 0.10000000)
		(-0.50000000 -0.00700747 0.10000000)
		(-0.48000000 -0.00700747 0.10000000)
		(-0.46000000 -0.00700747 0.10000000)
		(-0.44000000 -0.00700747 0.10000000)
		(-0.42000000 -0.00700747 0.10000000)
		(-0.40000000 -0.00700747 0.10000000)
		(-0.38000000 -0.00700747 0.10000000)
		(-0.36000000 -0.00700747 0.10000000)
		(-0.34000000 -0.00700747 0.10000000)
		(-0.32000000 -0.00700747 0.10000000)
		(-0.30000000 -0.00700747 0.10000000)
		(-0.28000000 -0.00700747 0.10000000)
		(-0.26000000 -0.00700747 0.10000000)
		(-0.24000000 -0.00700747 0.10000000)
		(-0.22000000 -0.00700747 0.10000000)
		(-0.20000000 -0.00700747 0.10000000)
		(-0.18000000 -0.00700747 0.10000000)
		(-0.16000000 -0.00700747 0.10000000)
		(-0.14000000 -0.00700747 0.10000000)
		(-0.12000000 -0.00700747 0.10000000)
		(-0.10000000 -0.00700747 0.10000000)
		(-0.08162011 -0.00592375 0.10000000)
		(-0.06324022 -0.00267257 0.10000000)
		(-0.04486034 0.00274605 0.10000000)
		(-0.02648045 0.01033212 0.10000000)
		(-0.00810056 0.02008564 0.10000000)
		(0.01027933 0.03200660 0.10000000)
		(0.02865922 0.04609502 0.10000000)
		(0.04703911 0.06235088 0.10000000)
		(0.06541899 0.08077419 0.10000000)
		(0.08379888 0.10136495 0.10000000)
		(0.10055866 0.12129846 0.10000000)
		(0.11731844 0.14026958 0.10000000)
		(0.13407821 0.15812778 0.10000000)
		(0.15083799 0.17473139 0.10000000)
		(0.16759777 0.18994865 0.10000000)
		(0.18435754 0.20365884 0.10000000)
		(0.20111732 0.21575318 0.10000000)
		(0.21787709 0.22613571 0.10000000)
		(0.23463687 0.23472406 0.10000000)
		(0.25139665 0.24145008 0.10000000)
		(0.26815642 0.24626041 0.10000000)
		(0.28491620 0.24911689 0.10000000)
		(0.30167598 0.24999684 0.10000000)
		(0.31843575 0.24889330 0.10000000)
		(0.33519553 0.24581501 0.10000000)
		(0.35195531 0.24078639 0.10000000)
		(0.36871508 0.23384736 0.10000000)
		(0.38547486 0.22505295 0.10000000)
		(0.40223464 0.21447295 0.10000000)
		(0.41899441 0.20219129 0.10000000)
		(0.43575419 0.18830544 0.10000000)
		(0.45251397 0.17292554 0.10000000)
		(0.46927374 0.15617364 0.10000000)
		(0.48603352 0.13818264 0.10000000)
		(0.50279330 0.11909528 0.10000000)
		(0.51955307 0.09906301 0.10000000)
		(0.53631285 0.07824476 0.10000000)
		(0.55307263 0.05680571 0.10000000)
		(0.56983240 0.03491595 0.10000000)
		(0.58659218 0.01274917 0.10000000)
		(0.60335196 -0.00951876 0.10000000)
		(0.62011173 -0.03171117 0.10000000)
		(0.63687151 -0.05365198 0.10000000)
		(0.65363128 -0.07516711 0.10000000)
		(0.67039106 -0.09608586 0.10000000)
		(0.68715084 -0.11624225 0.10000000)
		(0.70391061 -0.13547636 0.10000000)
		(0.72067039 -0.15363559 0.10000000)
		(0.73743017 -0.17057586 0.10000000)
		(0.75418994 -0.18616276 0.10000000)
		(0.77094972 -0.20027262 0.10000000)
		(0.78770950 -0.21279351 0.10000000)
		(0.80446927 -0.22362606 0.10000000)
		(0.82122905 -0.23268435 0.10000000)
		(0.83798883 -0.23989649 0.10000000)
		(0.85474860 -0.24520526 0.10000000)
		(0.87150838 -0.24856856 0.10000000)
		(0.88826816 -0.24995968 0.10000000)
		(0.90502793 -0.24936760 0.10000000)
		(0.92178771 -0.24679701 0.10000000)
		(0.93854749 -0.24226830 0.10000000)
		(0.95530726 -0.23581742 0.10000000)
		(0.97206704 -0.22749553 0.10000000)
		(0.98882682 -0.21736867 0.10000000)
		(1.00558659 -0.20551718 0.10000000)
		(1.02234637 -0.19203510 0.10000000)
		(1.03910615 -0.17702939 0.10000000)
		(1.05586592 -0.16061911 0.10000000)
		(1.07262570 -0.14293447 0.10000000)
		(1.08938547 -0.12411576 0.10000000)
		(1.10614525 -0.10431231 0.10000000)
		(1.12290503 -0.08368123 0.10000000)
		(1.13966480 -0.06238622 0.10000000)
		(1.15642458 -0.04059623 0.10000000)
		(1.17318436 -0.01848414 0.10000000)
		(1.18994413 0.00377460 0.10000000)
		(1.20670391 0.02600339 0.10000000)
		(1.22346369 0.04802587 0.10000000)
		(1.24022346 0.06966731 0.10000000)
		(1.25698324 0.09075600 0.10000000)
		(1.27374302 0.11112462 0.10000000)
		(1.29050279 0.13061157 0.10000000)
		(1.30726257 0.14906223 0.10000000)
		(1.32402235 0.16633021 0.10000000)
		(1.34078212 0.18227852 0.10000000)
		(1.35754190 0.19678060 0.10000000)
		(1.37430168 0.20972141 0.10000000)
		(1.39106145 0.22099827 0.10000000)
		(1.40782123 0.23052171 0.10000000)
		(1.42458101 0.23821616 0.10000000)
		(1.44134078 0.24402057 0.10000000)
		(1.45810056 0.24788891 0.10000000)
		(1.47486034 0.24979047 0.10000000)
		(1.49162011 0.24971016 0.10000000)
		(1.50837989 0.24764862 0.10000000)
		(1.52513966 0.24362222 0.10000000)
		(1.54189944 0.23766289 0.10000000)
		(1.55865922 0.22981792 0.10000000)
		(1.57541899 0.22014955 0.10000000)
		(1.59217877 0.20873449 0.10000000)
		(1.60893855 0.19566331 0.10000000)
		(1.62569832 0.18103972 0.10000000)
		(1.64245810 0.16497973 0.10000000)
		(1.65921788 0.14761078 0.10000000)
		(1.67597765 0.12907067 0.10000000)
		(1.69273743 0.10950650 0.10000000)
		(1.70949721 0.08907350 0.10000000)
		(1.72625698 0.06793378 0.10000000)
		(1.74301676 0.04625506 0.10000000)
		(1.75977654 0.02420935 0.10000000)
		(1.77653631 0.00197156 0.10000000)
		(1.79329609 -0.02028187 0.10000000)
		(1.81005587 -0.04237439 0.10000000)
		(1.82681564 -0.06413070 0.10000000)
		(1.84357542 -0.08537819 0.10000000)
		(1.86033520 -0.10594828 0.10000000)
		(1.87709497 -0.12567777 0.10000000)
		(1.89385475 -0.14441012 0.10000000)
		(1.91061453 -0.16199670 0.10000000)
		(1.92737430 -0.17829798 0.10000000)
		(1.94413408 -0.19318463 0.10000000)
		(1.96089385 -0.20653853 0.10000000)
		(1.97765363 -0.21825373 0.10000000)
		(1.99441341 -0.22823728 0.10000000)
		(2.01117318 -0.23640998 0.10000000)
		(2.02793296 -0.24270697 0.10000000)
		(2.04469274 -0.24707830 0.10000000)
		(2.06145251 -0.24948929 0.10000000)
		(2.07821229 -0.24992080 0.10000000)
		(2.09497207 -0.24836941 0.10000000)
		(2.11173184 -0.24484743 0.10000000)
		(2.12849162 -0.23938281 0.10000000)
		(2.14525140 -0.23201890 0.10000000)
		(2.16201117 -0.22281413 0.10000000)
		(2.17877095 -0.21184153 0.10000000)
		(2.19553073 -0.19918815 0.10000000)
		(2.21229050 -0.18495440 0.10000000)
		(2.22905028 -0.16925319 0.10000000)
		(2.24581006 -0.15220912 0.10000000)
		(2.26256983 -0.13395740 0.10000000)
		(2.27932961 -0.11464285 0.10000000)
		(2.29608939 -0.09441871 0.10000000)
		(2.31284916 -0.07344544 0.10000000)
		(2.32960894 -0.05188945 0.10000000)
		(2.34636872 -0.02992176 0.10000000)
		(2.36312849 -0.00771667 0.10000000)
		(2.37988827 0.01454964 0.10000000)
		(2.39664804 0.03670052 0.10000000)
		(2.41340782 0.05856021 0.10000000)
		(2.43016760 0.07995528 0.10000000)
		(2.44692737 0.10071597 0.10000000)
		(2.46368715 0.12067758 0.10000000)
		(2.48044693 0.13968171 0.10000000)
		(2.49720670 0.15757760 0.10000000)
		(2.51396648 0.17422325 0.10000000)
		(2.53072626 0.18948659 0.10000000)
		(2.54748603 0.20324652 0.10000000)
		(2.56424581 0.21539388 0.10000000)
		(2.58100559 0.22583228 0.10000000)
		(2.59776536 0.23447890 0.10000000)
		(2.61452514 0.24126514 0.10000000)
		(2.63128492 0.24613716 0.10000000)
		(2.64804469 0.24905630 0.10000000)
		(2.66480447 0.24999940 0.10000000)
		(2.68156425 0.24895898 0.10000000)
		(2.69832402 0.24594329 0.10000000)
		(2.71508380 0.24097627 0.10000000)
		(2.73184358 0.23409731 0.10000000)
		(2.74860335 0.22536100 0.10000000)
		(2.76536313 0.21483665 0.10000000)
		(2.78212291 0.20260776 0.10000000)
		(2.79888268 0.18877137 0.10000000)
		(2.81564246 0.17343724 0.10000000)
		(2.83240223 0.15672704 0.10000000)
		(2.84916201 0.13877335 0.10000000)
		(2.86592179 0.11971863 0.10000000)
		(2.88268156 0.09971404 0.10000000)
		(2.89944134 0.07891830 0.10000000)
		(2.91620112 0.05749643 0.10000000)
		(2.93296089 0.03561837 0.10000000)
		(2.95166480 0.01878871 0.10000000)
		(2.97036872 0.00373059 0.10000000)
		(2.98907263 -0.00955598 0.10000000)
		(3.00777654 -0.02107101 0.10000000)
		(3.02648045 -0.03081450 0.10000000)
		(3.04518436 -0.03878644 0.10000000)
		(3.06388827 -0.04498684 0.10000000)
		(3.08259218 -0.04941570 0.10000000)
		(3.10129609 -0.05207302 0.10000000)
		(3.12000000 -0.05295879 0.10000000)
		(3.14000000 -0.05295879 0.10000000)
		(3.16000000 -0.05295879 0.10000000)
		(3.18000000 -0.05295879 0.10000000)
		(3.20000000 -0.05295879 0.10000000)
		(3.22000000 -0.05295879 0.10000000)
		(3.24000000 -0.05295879 0.10000000)
		(3.26000000 -0.05295879 0.10000000)
		(3.28000000 -0.05295879 0.10000000)
		(3.30000000 -0.05295879 0.10000000)
		(3.32000000 -0.05295879 0.10000000)
		(3.34000000 -0.05295879 0.10000000)
		(3.36000000 -0.05295879 0.10000000)
		(3.38000000 -0.05295879 0.10000000)
		(3.40000000 -0.05295879 0.10000000)
		(3.42000000 -0.05295879 0.10000000)
		(3.44000000 -0.05295879 0.10000000)
		(3.46000000 -0.05295879 0.10000000)
		(3.48000000 -0.05295879 0.10000000)
		(3.50000000 -0.05295879 0.10000000)
		(3.52000000 -0.05295879 0.10000000)
		(3.54000000 -0.05295879 0.10000000)
		(3.56000000 -0.05295879 0.10000000)
		(3.58000000 -0.05295879 0.10000000)
		(3.60000000 -0.05295879 0.10000000)
		(3.62000000 -0.05295879 0.10000000)
		(3.64000000 -0.05295879 0.10000000)
		(3.66000000 -0.05295879 0.10000000)
		(3.68000000 -0.05295879 0.10000000)
		(3.70000000 -0.05295879 0.10000000)
		(3.72000000 -0.05295879 0.10000000)
		(3.74000000 -0.05295879 0.10000000)
		(3.76000000 -0.05295879 0.10000000)
		(3.78000000 -0.05295879 0.10000000)
		(3.80000000 -0.05295879 0.10000000)
		(3.82000000 -0.05295879 0.10000000)
		(3.84000000 -0.05295879 0.10000000)
		(3.86000000 -0.05295879 0.10000000)
		(3.88000000 -0.05295879 0.10000000)
		(3.90000000 -0.05295879 0.10000000)
		(3.92000000 -0.05295879 0.10000000)
		(3.94000000 -0.05295879 0.10000000)
		(3.96000000 -0.05295879 0.10000000)
		(3.98000000 -0.05295879 0.10000000)
		(4.00000000 -0.05295879 0.10000000)
	)
	polyLine 3 2
	(
		(-1.00000000 0.49299253 0.00000000)
		(-0.98000000 0.49289885 0.00000000)
		(-0.96000000 0.49280516 0.00000000)
		(-0.94000000 0.49271148 0.00000000)
		(-0.92000000 0.49261779 0.00000000)
		(-0.90000000 0.49252411 0.00000000)
		(-0.88000000 0.49243043 0.00000000)
		(-0.86000000 0.49233674 0.00000000)
		(-0.84000000 0.49224306 0.00000000)
		(-0.82000000 0.49214938 0.00000000)
		(-0.80000000 0.49205569 0.00000000)
		(-0.78000000 0.49196201 0.00000000)
		(-0.76000000 0.49186832 0.00000000)
		(-0.74000000 0.49177464 0.00000000)
		(-0.72000000 0.49168096 0.00000000)
		(-0.70000000 0.49158727 0.00000000)
		(-0.68000000 0.49149359 0.00000000)
		(-0.66000000 0.49139991 0.00000000)
		(-0.64000000 0.49130622 0.00000000)
		(-0.62000000 0.49121254 0.00000000)
		(-0.60000000 0.49111885 0.00000000)
		(-0.58000000 0.49102517 0.00000000)
		(-0.56000000 0.49093149 0.00000000)
		(-0.54000000 0.49083780 0.00000000)
		(-0.52000000 0.49074412 0.00000000)
		(-0.50000000 0.49065043 0.00000000)
		(-0.48000000 0.49055675 0.00000000)
		(-0.46000000 0.49046307 0.00000000)
		(-0.44000000 0.49036938 0.00000000)
		(-0.42000000 0.49027570 0.00000000)
		(-0.40000000 0.49018202 0.00000000)
		(-0.38000000 0.49008833 0.00000000)
		(-0.36000000 0.48999465 0.00000000)
		(-0.34000000 0.48990096 0.00000000)
		(-0.32000000 0.48980728 0.00000000)
		(-0.30000000 0.48971360 0.00000000)
		(-0.28000000 0.48961991 0.00000000)
		(-0.26000000 0.48952623 0.00000000)
		(-0.24000000 0.48943255 0.00000000)
		(-0.22000000 0.48933886 0.00000000)
		(-0.20000000 0.48924518 0.00000000)
		(-0.18000000 0.48915149 0.00000000)
		(-0.16000000 0.48905781 0.00000000)
		(-0.14000000 0.48896413 0.00000000)
		(-0.12000000 0.48887044 0.00000000)
		(-0.10000000 0.48877676 0.00000000)
		(-0.08162011 0.48751039 0.00000000)
		(-0.06324022 0.49050301 0.00000000)
		(-0.04486034 0.49775463 0.00000000)
		(-0.02648045 0.50926525 0.00000000)
		(-0.00810056 0.52503486 0.00000000)
		(0.01027933 0.54506347 0.00000000)
		(0.02865922 0.56935108 0.00000000)
		(0.04703911 0.59789768 0.00000000)
		(0.06541899 0.63070327 0.00000000)
		(0.08379888 0.66776786 0.00000000)
		(0.10055866 0.70075957 0.00000000)
		(0.11731844 0.73215843 0.00000000)
		(0.13407821 0.76171532 0.00000000)
		(0.15083799 0.78919573 0.00000000)
		(0.16759777 0.81438163 0.00000000)
		(0.18435754 0.83707320 0.00000000)
		(0.20111732 0.85709039 0.00000000)
		(0.21787709 0.87427439 0.00000000)
		(0.23463687 0.88848885 0.00000000)
		(0.25139665 0.89962101 0.00000000)
		(0.26815642 0.90758253 0.00000000)
		(0.28491620 0.91231024 0.00000000)
		(0.30167598 0.91376665 0.00000000)
		(0.31843575 0.91194018 0.00000000)
		(0.33519553 0.90684534 0.00000000)
		(0.35195531 0.89852255 0.00000000)
		(0.36871508 0.88703783 0.00000000)
		(0.38547486 0.87248232 0.00000000)
		(0.40223464 0.85497149 0.00000000)
		(0.41899441 0.83464428 0.00000000)
		(0.43575419 0.81166197 0.00000000)
		(0.45251397 0.78620690 0.00000000)
		(0.46927374 0.75848103 0.00000000)
		(0.48603352 0.72870435 0.00000000)
		(0.50279330 0.69711310 0.00000000)
		(0.51955307 0.66395794 0.00000000)
		(0.53631285 0.62950192 0.00000000)
		(0.55307263 0.59401842 0.00000000)
		(0.56983240 0.55778896 0.00000000)
		(0.58659218 0.52110100 0.00000000)
		(0.60335196 0.48424562 0.00000000)
		(0.62011173 0.44751524 0.00000000)
		(0.63687151 0.41120128 0.00000000)
		(0.65363128 0.37559186 0.00000000)
		(0.67039106 0.34096950 0.00000000)
		(0.68715084 0.30760891 0.00000000)
		(0.70391061 0.27577477 0.00000000)
		(0.72067039 0.24571966 0.00000000)
		(0.73743017 0.21768203 0.00000000)
		(0.75418994 0.19188435 0.00000000)
		(0.77094972 0.16853129 0.00000000)
		(0.78770950 0.14780813 0.00000000)
		(0.80446927 0.12987930 0.00000000)
		(0.82122905 0.11488705 0.00000000)
		(0.83798883 0.10295033 0.00000000)
		(0.85474860 0.09416384 0.00000000)
		(0.87150838 0.08859729 0.00000000)
		(0.88826816 0.08629486 0.00000000)
		(0.90502793 0.08727481 0.00000000)
		(0.92178771 0.09152936 0.00000000)
		(0.93854749 0.09902476 0.00000000)
		(0.95530726 0.10970155 0.00000000)
		(0.97206704 0.12347500 0.00000000)
		(0.98882682 0.14023584 0.00000000)
		(1.00558659 0.15985109 0.00000000)
		(1.02234637 0.18216511 0.00000000)
		(1.03910615 0.20700087 0.00000000)
		(1.05586592 0.23416132 0.00000000)
		(1.07262570 0.26343096 0.00000000)
		(1.08938547 0.29457756 0.00000000)
		(1.10614525 0.32735400 0.00000000)
		(1.12290503 0.36150024 0.00000000)
		(1.13966480 0.39674535 0.00000000)
		(1.15642458 0.43280969 0.00000000)
		(1.17318436 0.46940713 0.00000000)
		(1.18994413 0.50624729 0.00000000)
		(1.20670391 0.54303789 0.00000000)
		(1.22346369 0.57948702 0.00000000)
		(1.24022346 0.61530549 0.00000000)
		(1.25698324 0.65020911 0.00000000)
		(1.27374302 0.68392096 0.00000000)
		(1.29050279 0.71617357 0.00000000)
		(1.30726257 0.74671103 0.00000000)
		(1.32402235 0.77529105 0.00000000)
		(1.34078212 0.80168689 0.00000000)
		(1.35754190 0.82568912 0.00000000)
		(1.37430168 0.84710729 0.00000000)
		(1.39106145 0.86577147 0.00000000)
		(1.40782123 0.88153359 0.00000000)
		(1.42458101 0.89426858 0.00000000)
		(1.44134078 0.90387540 0.00000000)
		(1.45810056 0.91027783 0.00000000)
		(1.47486034 0.91342507 0.00000000)
		(1.49162011 0.91329216 0.00000000)
		(1.50837989 0.90988014 0.00000000)
		(1.52513966 0.90321609 0.00000000)
		(1.54189944 0.89335288 0.00000000)
		(1.55865922 0.88036877 0.00000000)
		(1.57541899 0.86436677 0.00000000)
		(1.59217877 0.84547385 0.00000000)
		(1.60893855 0.82383990 0.00000000)
		(1.62569832 0.79963657 0.00000000)
		(1.64245810 0.77305589 0.00000000)
		(1.65921788 0.74430876 0.00000000)
		(1.67597765 0.71362326 0.00000000)
		(1.69273743 0.68124285 0.00000000)
		(1.70949721 0.64742443 0.00000000)
		(1.72625698 0.61243634 0.00000000)
		(1.74301676 0.57655617 0.00000000)
		(1.75977654 0.54006859 0.00000000)
		(1.77653631 0.50326310 0.00000000)
		(1.79329609 0.46643172 0.00000000)
		(1.81005587 0.42986668 0.00000000)
		(1.82681564 0.39385808 0.00000000)
		(1.84357542 0.35869163 0.00000000)
		(1.86033520 0.32464632 0.00000000)
		(1.87709497 0.29199230 0.00000000)
		(1.89385475 0.26098863 0.00000000)
		(1.91061453 0.23188130 0.00000000)
		(1.92737430 0.20490125 0.00000000)
		(1.94413408 0.18026254 0.00000000)
		(1.96089385 0.15816067 0.00000000)
		(1.97765363 0.13877099 0.00000000)
		(1.99441341 0.12224733 0.00000000)
		(2.01117318 0.10872081 0.00000000)
		(2.02793296 0.09829873 0.00000000)
		(2.04469274 0.09106380 0.00000000)
		(2.06145251 0.08707341 0.00000000)
		(2.07821229 0.08635922 0.00000000)
		(2.09497207 0.08892690 0.00000000)
		(2.11173184 0.09475608 0.00000000)
		(2.12849162 0.10380050 0.00000000)
		(2.14525140 0.11598842 0.00000000)
		(2.16201117 0.13122312 0.00000000)
		(2.17877095 0.14938374 0.00000000)
		(2.19553073 0.17032618 0.00000000)
		(2.21229050 0.19388429 0.00000000)
		(2.22905028 0.21987116 0.00000000)
		(2.24581006 0.24808059 0.00000000)
		(2.26256983 0.27828879 0.00000000)
		(2.27932961 0.31025606 0.00000000)
		(2.29608939 0.34372878 0.00000000)
		(2.31284916 0.37844137 0.00000000)
		(2.32960894 0.41411842 0.00000000)
		(2.34636872 0.45047687 0.00000000)
		(2.36312849 0.48722823 0.00000000)
		(2.37988827 0.52408093 0.00000000)
		(2.39664804 0.56074257 0.00000000)
		(2.41340782 0.59692227 0.00000000)
		(2.43016760 0.63233298 0.00000000)
		(2.44692737 0.66669375 0.00000000)
		(2.46368715 0.69973195 0.00000000)
		(2.48044693 0.73118545 0.00000000)