/*--------------------------------*- C++ -*----------------------------------*\\
/*--------------------------------*- C++ -*----------------------------------*\\
| =========                 |                                                 |
| \\\\      /  F ield         | OpenFOAM: The Open Source CFD Toolbox           |
|  \\\\    /   O peration     | Version:  v2012                                 |
|   \\\\  /    A nd           | Website:  www.openfoam.com                      |
|    \\\\/     M anipulation  |                                                 |
\\*---------------------------------------------------------------------------*/
FoamFile
{
    version     2.0;
    format      ascii;
    class       dictionary;
    object      blockMeshDict;
}
// * * * * * * * * * * * * * * * * * * * * * * * * * * * * * * * * * * * * * //

scale   0.01;

xmin -1;
xmax 5;
ymin 0;
ymax 0.5;
zmin 0;
zmax 0.1;

vertices
(
    (-1.00000000 0.14164944 0.00000000)
    (4.00000000 0.24640679 0.00000000)
    (4.00000000 0.74640679 0.00000000)
    (-1.00000000 0.64164944 0.00000000)
    (-1.00000000 0.14164944 0.10000000)
    (4.00000000 0.24640679 0.10000000)
    (4.00000000 0.74640679 0.10000000)
    (-1.00000000 0.64164944 0.10000000)
);

blocks
(
    hex (0 1 2 3 4 5 6 7) (200 20 1) simpleGrading (1 1 1)
);

edges
(
	polyLine 0 1
	(
		(-1.00000000 0.14164944 0.00000000)
		(-0.98000000 0.14164944 0.00000000)
		(-0.96000000 0.14164944 0.00000000)
		(-0.94000000 0.14164944 0.00000000)
		(-0.92000000 0.14164944 0.00000000)
		(-0.90000000 0.14164944 0.00000000)
		(-0.88000000 0.14164944 0.00000000)
		(-0.86000000 0.14164944 0.00000000)
		(-0.84000000 0.14164944 0.00000000)
		(-0.82000000 0.14164944 0.00000000)
		(-0.80000000 0.14164944 0.00000000)
		(-0.78000000 0.14164944 0.00000000)
		(-0.76000000 0.14164944 0.00000000)
		(-0.74000000 0.14164944 0.00000000)
		(-0.72000000 0.14164944 0.00000000)
		(-0.70000000 0.14164944 0.00000000)
		(-0.68000000 0.14164944 0.00000000)
		(-0.66000000 0.14164944 0.00000000)
		(-0.64000000 0.14164944 0.00000000)
		(-0.62000000 0.14164944 0.00000000)
		(-0.60000000 0.14164944 0.00000000)
		(-0.58000000 0.14164944 0.00000000)
		(-0.56000000 0.14164944 0.00000000)
		(-0.54000000 0.14164944 0.00000000)
		(-0.52000000 0.14164944 0.00000000)
		(-0.50000000 0.14164944 0.00000000)
		(-0.48000000 0.14164944 0.00000000)
		(-0.46000000 0.14164944 0.00000000)
		(-0.44000000 0.14164944 0.00000000)
		(-0.42000000 0.14164944 0.00000000)
		(-0.40000000 0.14164944 0.00000000)
		(-0.38000000 0.14164944 0.00000000)
		(-0.36000000 0.14164944 0.00000000)
		(-0.34000000 0.14164944 0.00000000)
		(-0.32000000 0.14164944 0.00000000)
		(-0.30000000 0.14164944 0.00000000)
		(-0.28000000 0.14164944 0.00000000)
		(-0.26000000 0.14164944 0.00000000)
		(-0.24000000 0.14164944 0.00000000)
		(-0.22000000 0.14164944 0.00000000)
		(-0.20000000 0.14164944 0.00000000)
		(-0.18000000 0.14164944 0.00000000)
		(-0.16000000 0.14164944 0.00000000)
		(-0.14000000 0.14164944 0.00000000)
		(-0.12000000 0.14164944 0.00000000)
		(-0.10000000 0.14164944 0.00000000)
		(-0.08162011 0.14090860 0.00000000)
		(-0.06324022 0.13868608 0.00000000)
		(-0.04486034 0.13498187 0.00000000)
		(-0.02648045 0.12979599 0.00000000)
		(-0.00810056 0.12312842 0.00000000)
		(0.01027933 0.11497916 0.00000000)
		(0.02865922 0.10534823 0.00000000)
		(0.04703911 0.09423562 0.00000000)
		(0.06541899 0.08164132 0.00000000)
		(0.08379888 0.06756534 0.00000000)
		(0.10055866 0.05160706 0.00000000)
		(0.11731844 0.03542582 0.00000000)
		(0.13407821 0.01909153 0.00000000)
		(0.15083799 0.00267476 0.00000000)
		(0.16759777 -0.01375357 0.00000000)
		(0.18435754 -0.03012248 0.00000000)
		(0.20111732 -0.04636125 0.00000000)
		(0.21787709 -0.06239972 0.00000000)
		(0.23463687 -0.07816860 0.00000000)
		(0.25139665 -0.09359977 0.00000000)
		(0.26815642 -0.10862655 0.00000000)
		(0.28491620 -0.12318402 0.00000000)
		(0.30167598 -0.13720930 0.00000000)
		(0.31843575 -0.15064178 0.00000000)
		(0.33519553 -0.16342343 0.00000000)
		(0.35195531 -0.17549903 0.00000000)
		(0.36871508 -0.18681642 0.00000000)
		(0.38547486 -0.19732669 0.00000000)
		(0.40223464 -0.20698443 0.00000000)
		(0.41899441 -0.21574793 0.00000000)
		(0.43575419 -0.22357932 0.00000000)
		(0.45251397 -0.23044477 0.00000000)
		(0.46927374 -0.23631461 0.00000000)
		(0.48603352 -0.24116348 0.00000000)
		(0.50279330 -0.24497044 0.00000000)
		(0.51955307 -0.24771904 0.00000000)
		(0.53631285 -0.24939741 0.00000000)
		(0.55307263 -0.24999828 0.00000000)
		(0.56983240 -0.24951908 0.00000000)
		(0.58659218 -0.24796186 0.00000000)
		(0.60335196 -0.24533335 0.00000000)
		(0.62011173 -0.24164492 0.00000000)
		(0.63687151 -0.23691249 0.00000000)
		(0.65363128 -0.23115651 0.00000000)
		(0.67039106 -0.22440185 0.00000000)
		(0.68715084 -0.21667770 0.00000000)
		(0.70391061 -0.20801742 0.00000000)
		(0.72067039 -0.19845843 0.00000000)
		(0.73743017 -0.18804202 0.00000000)
		(0.75418994 -0.17681321 0.00000000)
		(0.77094972 -0.16482050 0.00000000)
		(0.78770950 -0.15211570 0.00000000)
		(0.80446927 -0.13875371 0.00000000)
		(0.82122905 -0.12479225 0.00000000)
		(0.83798883 -0.11029165 0.00000000)
		(0.85474860 -0.09531454 0.00000000)
		(0.87150838 -0.07992564 0.00000000)
		(0.88826816 -0.06419144 0.00000000)
		(0.90502793 -0.04817990 0.00000000)
		(0.92178771 -0.03196021 0.00000000)
		(0.93854749 -0.01560244 0.00000000)
		(0.95530726 0.00082274 0.00000000)
		(0.97206704 0.01724437 0.00000000)
		(0.98882682 0.03359149 0.00000000)
		(1.00558659 0.04979349 0.00000000)
		(1.02234637 0.06578036 0.00000000)
		(1.03910615 0.08148303 0.00000000)
		(1.05586592 0.09683367 0.00000000)
		(1.07262570 0.11176595 0.00000000)
		(1.08938547 0.12621536 0.00000000)
		(1.10614525 0.14011948 0.00000000)
		(1.12290503 0.15341823 0.00000000)
		(1.13966480 0.16605416 0.00000000)
		(1.15642458 0.17797267 0.00000000)
		(1.17318436 0.18912227 0.00000000)
		(1.18994413 0.19945480 0.00000000)
		(1.20670391 0.20892561 0.00000000)
		(1.22346369 0.21749379 0.00000000)
		(1.24022346 0.22512231 0.00000000)
		(1.25698324 0.23177823 0.00000000)
		(1.27374302 0.23743278 0.00000000)
		(1.29050279 0.24206153 0.00000000)
		(1.30726257 0.24564449 0.00000000)
		(1.32402235 0.24816617 0.00000000)
		(1.34078212 0.24961569 0.00000000)
		(1.35754190 0.24998677 0.00000000)
		(1.37430168 0.24927783 0.00000000)
		(1.39106145 0.24749191 0.00000000)
		(1.40782123 0.24463674 0.00000000)
		(1.42458101 0.24072464 0.00000000)
		(1.44134078 0.23577253 0.00000000)
		(1.45810056 0.22980180 0.00000000)
		(1.47486034 0.22283824 0.00000000)
		(1.49162011 0.21491193 0.00000000)
		(1.50837989 0.20605713 0.00000000)
		(1.52513966 0.19631209 0.00000000)
		(1.54189944 0.18571891 0.00000000)
		(1.55865922 0.17432335 0.00000000)
		(1.57541899 0.16217466 0.00000000)
		(1.59217877 0.14932531 0.00000000)
		(1.60893855 0.13583082 0.00000000)
		(1.62569832 0.12174949 0.00000000)
		(1.64245810 0.10714216 0.00000000)
		(1.65921788 0.09207194 0.00000000)
		(1.67597765 0.07660393 0.00000000)
		(1.69273743 0.06080497 0.00000000)
		(1.70949721 0.04474331 0.00000000)
		(1.72625698 0.02848834 0.00000000)
		(1.74301676 0.01211029 0.00000000)
		(1.75977654 -0.00432008 0.00000000)
		(1.77653631 -0.02073179 0.00000000)
		(1.79329609 -0.03705393 0.00000000)
		(1.81005587 -0.05321598 0.00000000)
		(1.82681564 -0.06914812 0.00000000)
		(1.84357542 -0.08478151 0.00000000)
		(1.86033520 -0.10004862 0.00000000)
		(1.87709497 -0.11488348 0.00000000)
		(1.89385475 -0.12922200 0.00000000)
		(1.91061453 -0.14300224 0.00000000)
		(1.92737430 -0.15616465 0.00000000)
		(1.94413408 -0.16865238 0.00000000)
		(1.96089385 -0.18041147 0.00000000)
		(1.97765363 -0.19139111 0.00000000)
		(1.99441341 -0.20154388 0.00000000)
		(2.01117318 -0.21082590 0.00000000)
		(2.02793296 -0.21919708 0.00000000)
		(2.04469274 -0.22662124 0.00000000)
		(2.06145251 -0.23306632 0.00000000)
		(2.07821229 -0.23850447 0.00000000)
		(2.09497207 -0.24291220 0.00000000)
		(2.11173184 -0.24627045 0.00000000)
		(2.12849162 -0.24856473 0.00000000)
		(2.14525140 -0.24978511 0.00000000)
		(2.16201117 -0.24992634 0.00000000)
		(2.17877095 -0.24898779 0.00000000)
		(2.19553073 -0.24697352 0.00000000)
		(2.21229050 -0.24389224 0.00000000)
		(2.22905028 -0.23975725 0.00000000)
		(2.24581006 -0.23458643 0.00000000)
		(2.26256983 -0.22840211 0.00000000)
		(2.27932961 -0.22123101 0.00000000)
		(2.29608939 -0.21310411 0.00000000)
		(2.31284916 -0.20405652 0.00000000)
		(2.32960894 -0.19412733 0.00000000)
		(2.34636872 -0.18335945 0.00000000)
		(2.36312849 -0.17179938 0.00000000)
		(2.37988827 -0.15949708 0.00000000)
		(2.39664804 -0.14650569 0.00000000)
		(2.41340782 -0.13288135 0.00000000)
		(2.43016760 -0.11868290 0.00000000)
		(2.44692737 -0.10397171 0.00000000)
		(2.46368715 -0.08881132 0.00000000)
		(2.48044693 -0.07326723 0.00000000)
		(2.49720670 -0.05740661 0.00000000)
		(2.51396648 -0.04129796 0.00000000)
		(2.53072626 -0.02501089 0.00000000)
		(2.54748603 -0.00861577 0.00000000)
		(2.56424581 0.00781658 0.00000000)
		(2.58100559 0.02421515 0.00000000)
		(2.59776536 0.04050911 0.00000000)
		(2.61452514 0.05662806 0.00000000)
		(2.63128492 0.07250235 0.00000000)
		(2.64804469 0.08806340 0.00000000)
		(2.66480447 0.10324399 0.00000000)
		(2.68156425 0.11797852 0.00000000)
		(2.69832402 0.13220335 0.00000000)
		(2.71508380 0.14585701 0.00000000)
		(2.73184358 0.15888052 0.00000000)
		(2.74860335 0.17121760 0.00000000)
		(2.76536313 0.18281496 0.00000000)
		(2.78212291 0.19362249 0.00000000)
		(2.79888268 0.20359351 0.00000000)
		(2.81564246 0.21268492 0.00000000)
		(2.83240223 0.22085746 0.00000000)
		(2.84916201 0.22807582 0.00000000)
		(2.86592179 0.23430880 0.00000000)
		(2.88268156 0.23952949 0.00000000)
		(2.89944134 0.24371532 0.00000000)
		(2.91620112 0.24684821 0.00000000)
		(2.93296089 0.24891463 0.00000000)
		(2.95166480 0.24843814 0.00000000)
		(2.97036872 0.24801181 0.00000000)
		(2.98907263 0.24763563 0.00000000)
		(3.00777654 0.24730962 0.00000000)
		(3.02648045 0.24703375 0.00000000)
		(3.04518436 0.24680805 0.00000000)
		(3.06388827 0.24663250 0.00000000)
		(3.08259218 0.24650711 0.00000000)
		(3.10129609 0.24643187 0.00000000)
		(3.12000000 0.24640679 0.00000000)
		(3.14000000 0.24640679 0.00000000)
		(3.16000000 0.24640679 0.00000000)
		(3.18000000 0.24640679 0.00000000)
		(3.20000000 0.24640679 0.00000000)
		(3.22000000 0.24640679 0.00000000)
		(3.24000000 0.24640679 0.00000000)
		(3.26000000 0.24640679 0.00000000)
		(3.28000000 0.24640679 0.00000000)
		(3.30000000 0.24640679 0.00000000)
		(3.32000000 0.24640679 0.00000000)
		(3.34000000 0.24640679 0.00000000)
		(3.36000000 0.24640679 0.00000000)
		(3.38000000 0.24640679 0.00000000)
		(3.40000000 0.24640679 0.00000000)
		(3.42000000 0.24640679 0.00000000)
		(3.44000000 0.24640679 0.00000000)
		(3.46000000 0.24640679 0.00000000)
		(3.48000000 0.24640679 0.00000000)
		(3.50000000 0.24640679 0.00000000)
		(3.52000000 0.24640679 0.00000000)
		(3.54000000 0.24640679 0.00000000)
		(3.56000000 0.24640679 0.00000000)
		(3.58000000 0.24640679 0.00000000)
		(3.60000000 0.24640679 0.00000000)
		(3.62000000 0.24640679 0.00000000)
		(3.64000000 0.24640679 0.00000000)
		(3.66000000 0.24640679 0.00000000)
		(3.68000000 0.24640679 0.00000000)
		(3.70000000 0.24640679 0.00000000)
		(3.72000000 0.24640679 0.00000000)
		(3.74000000 0.24640679 0.00000000)
		(3.76000000 0.24640679 0.00000000)
		(3.78000000 0.24640679 0.00000000)
		(3.80000000 0.24640679 0.00000000)
		(3.82000000 0.24640679 0.00000000)
		(3.84000000 0.24640679 0.00000000)
		(3.86000000 0.24640679 0.00000000)
		(3.88000000 0.24640679 0.00000000)
		(3.90000000 0.24640679 0.00000000)
		(3.92000000 0.24640679 0.00000000)
		(3.94000000 0.24640679 0.00000000)
		(3.96000000 0.24640679 0.00000000)
		(3.98000000 0.24640679 0.00000000)
		(4.00000000 0.24640679 0.00000000)
	)
	polyLine 4 5
	(
		(-1.00000000 0.14164944 0.10000000)
		(-0.98000000 0.14164944 0.10000000)
		(-0.96000000 0.14164944 0.10000000)
		(-0.94000000 0.14164944 0.10000000)
		(-0.92000000 0.14164944 0.10000000)
		(-0.90000000 0.14164944 0.10000000)
		(-0.88000000 0.14164944 0.10000000)
		(-0.86000000 0.14164944 0.10000000)
		(-0.84000000 0.14164944 0.10000000)
		(-0.82000000 0.14164944 0.10000000)
		(-0.80000000 0.14164944 0.10000000)
		(-0.78000000 0.14164944 0.10000000)
		(-0.76000000 0.14164944 0.10000000)
		(-0.74000000 0.14164944 0.10000000)
		(-0.72000000 0.14164944 0.10000000)
		(-0.70000000 0.14164944 0.10000000)
		(-0.68000000 0.14164944 0.10000000)
		(-0.66000000 0.14164944 0.10000000)
		(-0.64000000 0.14164944 0.10000000)
		(-0.62000000 0.14164944 0.10000000)
		(-0.60000000 0.14164944 0.10000000)
		(-0.58000000 0.14164944 0.10000000)
		(-0.56000000 0.14164944 0.10000000)
		(-0.54000000 0.14164944 0.10000000)
		(-0.52000000 0.14164944 0.10000000)
		(-0.50000000 0.14164944 0.10000000)
		(-0.48000000 0.14164944 0.10000000)
		(-0.46000000 0.14164944 0.10000000)
		(-0.44000000 0.14164944 0.10000000)
		(-0.42000000 0.14164944 0.10000000)
		(-0.40000000 0.14164944 0.10000000)
		(-0.38000000 0.14164944 0.10000000)
		(-0.36000000 0.14164944 0.10000000)
		(-0.34000000 0.14164944 0.10000000)
		(-0.32000000 0.14164944 0.10000000)
		(-0.30000000 0.14164944 0.10000000)
		(-0.28000000 0.14164944 0.10000000)
		(-0.26000000 0.14164944 0.10000000)
		(-0.24000000 0.14164944 0.10000000)
		(-0.22000000 0.14164944 0.10000000)
		(-0.20000000 0.14164944 0.10000000)
		(-0.18000000 0.14164944 0.10000000)
		(-0.16000000 0.14164944 0.10000000)
		(-0.14000000 0.14164944 0.10000000)
		(-0.12000000 0.14164944 0.10000000)
		(-0.10000000 0.14164944 0.10000000)
		(-0.08162011 0.14090860 0.10000000)
		(-0.06324022 0.13868608 0.10000000)
		(-0.04486034 0.13498187 0.10000000)
		(-0.02648045 0.12979599 0.10000000)
		(-0.00810056 0.12312842 0.10000000)
		(0.01027933 0.11497916 0.10000000)
		(0.02865922 0.10534823 0.10000000)
		(0.04703911 0.09423562 0.10000000)
		(0.06541899 0.08164132 0.10000000)
		(0.08379888 0.06756534 0.10000000)
		(0.10055866 0.05160706 0.10000000)
		(0.11731844 0.03542582 0.10000000)
		(0.13407821 0.01909153 0.10000000)
		(0.15083799 0.00267476 0.10000000)
		(0.16759777 -0.01375357 0.10000000)
		(0.18435754 -0.03012248 0.10000000)
		(0.20111732 -0.04636125 0.10000000)
		(0.21787709 -0.06239972 0.10000000)
		(0.23463687 -0.07816860 0.10000000)
		(0.25139665 -0.09359977 0.10000000)
		(0.26815642 -0.10862655 0.10000000)
		(0.28491620 -0.12318402 0.10000000)
		(0.30167598 -0.13720930 0.10000000)
		(0.31843575 -0.15064178 0.10000000)
		(0.33519553 -0.16342343 0.10000000)
		(0.35195531 -0.17549903 0.10000000)
		(0.36871508 -0.18681642 0.10000000)
		(0.38547486 -0.19732669 0.10000000)
		(0.40223464 -0.20698443 0.10000000)
		(0.41899441 -0.21574793 0.10000000)
		(0.43575419 -0.22357932 0.10000000)
		(0.45251397 -0.23044477 0.10000000)
		(0.46927374 -0.23631461 0.10000000)
		(0.48603352 -0.24116348 0.10000000)
		(0.50279330 -0.24497044 0.10000000)
		(0.51955307 -0.24771904 0.10000000)
		(0.53631285 -0.24939741 0.10000000)
		(0.55307263 -0.24999828 0.10000000)
		(0.56983240 -0.24951908 0.10000000)
		(0.58659218 -0.24796186 0.10000000)
		(0.60335196 -0.24533335 0.10000000)
		(0.62011173 -0.24164492 0.10000000)
		(0.63687151 -0.23691249 0.10000000)
		(0.65363128 -0.23115651 0.10000000)
		(0.67039106 -0.22440185 0.10000000)
		(0.68715084 -0.21667770 0.10000000)
		(0.70391061 -0.20801742 0.10000000)
		(0.72067039 -0.19845843 0.10000000)
		(0.73743017 -0.18804202 0.10000000)
		(0.75418994 -0.17681321 0.10000000)
		(0.77094972 -0.16482050 0.10000000)
		(0.78770950 -0.15211570 0.10000000)
		(0.80446927 -0.13875371 0.10000000)
		(0.82122905 -0.12479225 0.10000000)
		(0.83798883 -0.11029165 0.10000000)
		(0.85474860 -0.09531454 0.10000000)
		(0.87150838 -0.07992564 0.10000000)
		(0.88826816 -0.06419144 0.10000000)
		(0.90502793 -0.04817990 0.10000000)
		(0.92178771 -0.03196021 0.10000000)
		(0.93854749 -0.01560244 0.10000000)
		(0.95530726 0.00082274 0.10000000)
		(0.97206704 0.01724437 0.10000000)
		(0.98882682 0.03359149 0.10000000)
		(1.00558659 0.04979349 0.10000000)
		(1.02234637 0.06578036 0.10000000)
		(1.03910615 0.08148303 0.10000000)
		(1.05586592 0.09683367 0.10000000)
		(1.07262570 0.11176595 0.10000000)
		(1.08938547 0.12621536 0.10000000)
		(1.10614525 0.14011948 0.10000000)
		(1.12290503 0.15341823 0.10000000)
		(1.13966480 0.16605416 0.10000000)
		(1.15642458 0.17797267 0.10000000)
		(1.17318436 0.18912227 0.10000000)
		(1.18994413 0.19945480 0.10000000)
		(1.20670391 0.20892561 0.10000000)
		(1.22346369 0.21749379 0.10000000)
		(1.24022346 0.22512231 0.10000000)
		(1.25698324 0.23177823 0.10000000)
		(1.27374302 0.23743278 0.10000000)
		(1.29050279 0.24206153 0.10000000)
		(1.30726257 0.24564449 0.10000000)
		(1.32402235 0.24816617 0.10000000)
		(1.34078212 0.24961569 0.10000000)
		(1.35754190 0.24998677 0.10000000)
		(1.37430168 0.24927783 0.10000000)
		(1.39106145 0.24749191 0.10000000)
		(1.40782123 0.24463674 0.10000000)
		(1.42458101 0.24072464 0.10000000)
		(1.44134078 0.23577253 0.10000000)
		(1.45810056 0.22980180 0.10000000)
		(1.47486034 0.22283824 0.10000000)
		(1.49162011 0.21491193 0.10000000)
		(1.50837989 0.20605713 0.10000000)
		(1.52513966 0.19631209 0.10000000)
		(1.54189944 0.18571891 0.10000000)
		(1.55865922 0.17432335 0.10000000)
		(1.57541899 0.16217466 0.10000000)
		(1.59217877 0.14932531 0.10000000)
		(1.60893855 0.13583082 0.10000000)
		(1.62569832 0.12174949 0.10000000)
		(1.64245810 0.10714216 0.10000000)
		(1.65921788 0.09207194 0.10000000)
		(1.67597765 0.07660393 0.10000000)
		(1.69273743 0.06080497 0.10000000)
		(1.70949721 0.04474331 0.10000000)
		(1.72625698 0.02848834 0.10000000)
		(1.74301676 0.01211029 0.10000000)
		(1.75977654 -0.00432008 0.10000000)
		(1.77653631 -0.02073179 0.10000000)
		(1.79329609 -0.03705393 0.10000000)
		(1.81005587 -0.05321598 0.10000000)
		(1.82681564 -0.06914812 0.10000000)
		(1.84357542 -0.08478151 0.10000000)
		(1.86033520 -0.10004862 0.10000000)
		(1.87709497 -0.11488348 0.10000000)
		(1.89385475 -0.12922200 0.10000000)
		(1.91061453 -0.14300224 0.10000000)
		(1.92737430 -0.15616465 0.10000000)
		(1.94413408 -0.16865238 0.10000000)
		(1.96089385 -0.18041147 0.10000000)
		(1.97765363 -0.19139111 0.10000000)
		(1.99441341 -0.20154388 0.10000000)
		(2.01117318 -0.21082590 0.10000000)
		(2.02793296 -0.21919708 0.10000000)
		(2.04469274 -0.22662124 0.10000000)
		(2.06145251 -0.23306632 0.10000000)
		(2.07821229 -0.23850447 0.10000000)
		(2.09497207 -0.24291220 0.10000000)
		(2.11173184 -0.24627045 0.10000000)
		(2.12849162 -0.24856473 0.10000000)
		(2.14525140 -0.24978511 0.10000000)
		(2.16201117 -0.24992634 0.10000000)
		(2.17877095 -0.24898779 0.10000000)
		(2.19553073 -0.24697352 0.10000000)
		(2.21229050 -0.24389224 0.10000000)
		(2.22905028 -0.23975725 0.10000000)
		(2.24581006 -0.23458643 0.10000000)
		(2.26256983 -0.22840211 0.10000000)
		(2.27932961 -0.22123101 0.10000000)
		(2.29608939 -0.21310411 0.10000000)
		(2.31284916 -0.20405652 0.10000000)
		(2.32960894 -0.19412733 0.10000000)
		(2.34636872 -0.18335945 0.10000000)
		(2.36312849 -0.17179938 0.10000000)
		(2.37988827 -0.15949708 0.10000000)
		(2.39664804 -0.14650569 0.10000000)
		(2.41340782 -0.13288135 0.10000000)
		(2.43016760 -0.11868290 0.10000000)
		(2.44692737 -0.10397171 0.10000000)
		(2.46368715 -0.08881132 0.10000000)
		(2.48044693 -0.07326723 0.10000000)
		(2.49720670 -0.05740661 0.10000000)
		(2.51396648 -0.04129796 0.10000000)
		(2.53072626 -0.02501089 0.10000000)
		(2.54748603 -0.00861577 0.10000000)
		(2.56424581 0.00781658 0.10000000)
		(2.58100559 0.02421515 0.10000000)
		(2.59776536 0.04050911 0.10000000)
		(2.61452514 0.05662806 0.10000000)
		(2.63128492 0.07250235 0.10000000)
		(2.64804469 0.08806340 0.10000000)
		(2.66480447 0.10324399 0.10000000)
		(2.68156425 0.11797852 0.10000000)
		(2.69832402 0.13220335 0.10000000)
		(2.71508380 0.14585701 0.10000000)
		(2.73184358 0.15888052 0.10000000)
		(2.74860335 0.17121760 0.10000000)
		(2.76536313 0.18281496 0.10000000)
		(2.78212291 0.19362249 0.10000000)
		(2.79888268 0.20359351 0.10000000)
		(2.81564246 0.21268492 0.10000000)
		(2.83240223 0.22085746 0.10000000)
		(2.84916201 0.22807582 0.10000000)
		(2.86592179 0.23430880 0.10000000)
		(2.88268156 0.23952949 0.10000000)
		(2.89944134 0.24371532 0.10000000)
		(2.91620112 0.24684821 0.10000000)
		(2.93296089 0.24891463 0.10000000)
		(2.95166480 0.24843814 0.10000000)
		(2.97036872 0.24801181 0.10000000)
		(2.98907263 0.24763563 0.10000000)
		(3.00777654 0.24730962 0.10000000)
		(3.02648045 0.24703375 0.10000000)
		(3.04518436 0.24680805 0.10000000)
		(3.06388827 0.24663250 0.10000000)
		(3.08259218 0.24650711 0.10000000)
		(3.10129609 0.24643187 0.10000000)
		(3.12000000 0.24640679 0.10000000)
		(3.14000000 0.24640679 0.10000000)
		(3.16000000 0.24640679 0.10000000)
		(3.18000000 0.24640679 0.10000000)
		(3.20000000 0.24640679 0.10000000)
		(3.22000000 0.24640679 0.10000000)
		(3.24000000 0.24640679 0.10000000)
		(3.26000000 0.24640679 0.10000000)
		(3.28000000 0.24640679 0.10000000)
		(3.30000000 0.24640679 0.10000000)
		(3.32000000 0.24640679 0.10000000)
		(3.34000000 0.24640679 0.10000000)
		(3.36000000 0.24640679 0.10000000)
		(3.38000000 0.24640679 0.10000000)
		(3.40000000 0.24640679 0.10000000)
		(3.42000000 0.24640679 0.10000000)
		(3.44000000 0.24640679 0.10000000)
		(3.46000000 0.24640679 0.10000000)
		(3.48000000 0.24640679 0.10000000)
		(3.50000000 0.24640679 0.10000000)
		(3.52000000 0.24640679 0.10000000)
		(3.54000000 0.24640679 0.10000000)
		(3.56000000 0.24640679 0.10000000)
		(3.58000000 0.24640679 0.10000000)
		(3.60000000 0.24640679 0.10000000)
		(3.62000000 0.24640679 0.10000000)
		(3.64000000 0.24640679 0.10000000)
		(3.66000000 0.24640679 0.10000000)
		(3.68000000 0.24640679 0.10000000)
		(3.70000000 0.24640679 0.10000000)
		(3.72000000 0.24640679 0.10000000)
		(3.74000000 0.24640679 0.10000000)
		(3.76000000 0.24640679 0.10000000)
		(3.78000000 0.24640679 0.10000000)
		(3.80000000 0.24640679 0.10000000)
		(3.82000000 0.24640679 0.10000000)
		(3.84000000 0.24640679 0.10000000)
		(3.86000000 0.24640679 0.10000000)
		(3.88000000 0.24640679 0.10000000)
		(3.90000000 0.24640679 0.10000000)
		(3.92000000 0.24640679 0.10000000)
		(3.94000000 0.24640679 0.10000000)
		(3.96000000 0.24640679 0.10000000)
		(3.98000000 0.24640679 0.10000000)
		(4.00000000 0.24640679 0.10000000)
	)
	polyLine 3 2
	(
		(-1.00000000 0.64164944 0.00000000)
		(-0.98000000 0.64280790 0.00000000)
		(-0.96000000 0.64396635 0.00000000)
		(-0.94000000 0.64512481 0.00000000)
		(-0.92000000 0.64628326 0.00000000)
		(-0.90000000 0.64744171 0.00000000)
		(-0.88000000 0.64860017 0.00000000)
		(-0.86000000 0.64975862 0.00000000)
		(-0.84000000 0.65091708 0.00000000)
		(-0.82000000 0.65207553 0.00000000)
		(-0.80000000 0.65323399 0.00000000)
		(-0.78000000 0.65439244 0.00000000)
		(-0.76000000 0.65555090 0.00000000)
		(-0.74000000 0.65670935 0.00000000)
		(-0.72000000 0.65786780 0.00000000)
		(-0.70000000 0.65902626 0.00000000)
		(-0.68000000 0.66018471 0.00000000)
		(-0.66000000 0.66134317 0.00000000)
		(-0.64000000 0.66250162 0.00000000)
		(-0.62000000 0.66366008 0.00000000)
		(-0.60000000 0.66481853 0.00000000)
		(-0.58000000 0.66597698 0.00000000)
		(-0.56000000 0.66713544 0.00000000)
		(-0.54000000 0.66829389 0.00000000)
		(-0.52000000 0.66945235 0.00000000)
		(-0.50000000 0.67061080 0.00000000)
		(-0.48000000 0.67176926 0.00000000)
		(-0.46000000 0.67292771 0.00000000)
		(-0.44000000 0.67408617 0.00000000)
		(-0.42000000 0.67524462 0.00000000)
		(-0.40000000 0.67640307 0.00000000)
		(-0.38000000 0.67756153 0.00000000)
		(-0.36000000 0.67871998 0.00000000)
		(-0.34000000 0.67987844 0.00000000)
		(-0.32000000 0.68103689 0.00000000)
		(-0.30000000 0.68219535 0.00000000)
		(-0.28000000 0.68335380 0.00000000)
		(-0.26000000 0.68451226 0.00000000)
		(-0.24000000 0.68567071 0.00000000)
		(-0.22000000 0.68682916 0.00000000)
		(-0.20000000 0.68798762 0.00000000)
		(-0.18000000 0.68914607 0.00000000)
		(-0.16000000 0.69030453 0.00000000)
		(-0.14000000 0.69146298 0.00000000)
		(-0.12000000 0.69262144 0.00000000)
		(-0.10000000 0.69377989 0.00000000)
		(-0.08162011 0.69528427 0.00000000)
		(-0.06324022 0.69425126 0.00000000)
		(-0.04486034 0.69068086 0.00000000)
		(-0.02648045 0.68457308 0.00000000)
		(-0.00810056 0.67592792 0.00000000)
		(0.01027933 0.66474537 0.00000000)
		(0.02865922 0.65102543 0.00000000)
		(0.04703911 0.63476811 0.00000000)
		(0.06541899 0.61597340 0.00000000)
		(0.08379888 0.59464131 0.00000000)
		(0.10055866 0.57228795 0.00000000)
		(0.11731844 0.54962228 0.00000000)
		(0.13407821 0.52674223 0.00000000)
		(0.15083799 0.50374663 0.00000000)
		(0.16759777 0.48073485 0.00000000)
		(0.18435754 0.45780631 0.00000000)
		(0.20111732 0.43506005 0.00000000)
		(0.21787709 0.41259436 0.00000000)
		(0.23463687 0.39050629 0.00000000)
		(0.25139665 0.36889128 0.00000000)
		(0.26815642 0.34784270 0.00000000)
		(0.28491620 0.32745150 0.00000000)
		(0.30167598 0.30780577 0.00000000)
		(0.31843575 0.28899039 0.00000000)
		(0.33519553 0.27108665 0.00000000)
		(0.35195531 0.25417190 0.00000000)
		(0.36871508 0.23831921 0.00000000)
		(0.38547486 0.22359708 0.00000000)
		(0.40223464 0.21006911 0.00000000)
		(0.41899441 0.19779375 0.00000000)
		(0.43575419 0.18682403 0.00000000)
		(0.45251397 0.17720734 0.00000000)
		(0.46927374 0.16898523 0.00000000)
		(0.48603352 0.16219323 0.00000000)
		(0.50279330 0.15686067 0.00000000)
		(0.51955307 0.15301061 0.00000000)
		(0.53631285 0.15065966 0.00000000)
		(0.55307263 0.14981799 0.00000000)
		(0.56983240 0.15048923 0.00000000)
		(0.58659218 0.15267049 0.00000000)
		(0.60335196 0.15635234 0.00000000)
		(0.62011173 0.16151887 0.00000000)
		(0.63687151 0.16814776 0.00000000)
		(0.65363128 0.17621037 0.00000000)
		(0.67039106 0.18567187 0.00000000)
		(0.68715084 0.19649139 0.00000000)
		(0.70391061 0.20862217 0.00000000)
		(0.72067039 0.22201181 0.00000000)
		(0.73743017 0.23660246 0.00000000)
		(0.75418994 0.25233108 0.00000000)
		(0.77094972 0.26912972 0.00000000)
		(0.78770950 0.28692581 0.00000000)
		(0.80446927 0.30564245 0.00000000)
		(0.82122905 0.32519879 0.00000000)
		(0.83798883 0.34551034 0.00000000)
		(0.85474860 0.36648933 0.00000000)
		(0.87150838 0.38804514 0.00000000)
		(0.88826816 0.41008464 0.00000000)
		(0.90502793 0.43251260 0.00000000)
		(0.92178771 0.45523213 0.00000000)
		(0.93854749 0.47814508 0.00000000)
		(0.95530726 0.50115245 0.00000000)
		(0.97206704 0.52415484 0.00000000)
		(0.98882682 0.54705287 0.00000000)
		(1.00558659 0.56974761 0.00000000)
		(1.02234637 0.59214102 0.00000000)
		(1.03910615 0.61413635 0.00000000)
		(1.05586592 0.63563857 0.00000000)
		(1.07262570 0.65655478 0.00000000)
		(1.08938547 0.67679461 0.00000000)
		(1.10614525 0.69627063 0.00000000)
		(1.12290503 0.71489869 0.00000000)
		(1.13966480 0.73259831 0.00000000)
		(1.15642458 0.74929302 0.00000000)
		(1.17318436 0.76491069 0.00000000)
		(1.18994413 0.77938385 0.00000000)
		(1.20670391 0.79264997 0.00000000)
		(1.22346369 0.80465174 0.00000000)
		(1.24022346 0.81533730 0.00000000)
		(1.25698324 0.82466049 0.00000000)
		(1.27374302 0.83258103 0.00000000)
		(1.29050279 0.83906470 0.00000000)
		(1.30726257 0.84408348 0.00000000)
		(1.32402235 0.84761570 0.00000000)
		(1.34078212 0.84964609 0.00000000)
		(1.35754190 0.85016589 0.00000000)
		(1.37430168 0.84917284 0.00000000)
		(1.39106145 0.84667124 0.00000000)
		(1.40782123 0.84267189 0.00000000)
		(1.42458101 0.83719207 0.00000000)
		(1.44134078 0.83025546 0.00000000)
		(1.45810056 0.82189203 0.00000000)
		(1.47486034 0.81213791 0.00000000)
		(1.49162011 0.80103524 0.00000000)
		(1.50837989 0.78863199 0.00000000)
		(1.52513966 0.77498174 0.00000000)
		(1.54189944 0.76014347 0.00000000)
		(1.55865922 0.74418128 0.00000000)
		(1.57541899 0.72716415 0.00000000)
		(1.59217877 0.70916558 0.00000000)
		(1.60893855 0.69026334 0.00000000)
		(1.62569832 0.67053910 0.00000000)
		(1.64245810 0.65007806 0.00000000)
		(1.65921788 0.62896863 0.00000000)
		(1.67597765 0.60730202 0.00000000)
		(1.69273743 0.58517181 0.00000000)
		(1.70949721 0.56267364 0.00000000)
		(1.72625698 0.53990469 0.00000000)
		(1.74301676 0.51696334 0.00000000)
		(1.75977654 0.49394870 0.00000000)
		(1.77653631 0.47096020 0.00000000)
		(1.79329609 0.44809717 0.00000000)
		(1.81005587 0.42545837 0.00000000)
		(1.82681564 0.40314163 0.00000000)
		(1.84357542 0.38124334 0.00000000)
		(1.86033520 0.35985813 0.00000000)
		(1.87709497 0.33907838 0.00000000)
		(1.89385475 0.31899387 0.00000000)
		(1.91061453 0.29969138 0.00000000)
		(1.92737430 0.28125429 0.00000000)
		(1.94413408 0.26376226 0.00000000)
		(1.96089385 0.24729086 0.00000000)
		(1.97765363 0.23191126 0.00000000)
		(1.99441341 0.21768990 0.00000000)
		(2.01117318 0.20468823 0.00000000)
		(2.02793296 0.19296240 0.00000000)
		(2.04469274 0.18256309 0.00000000)
		(2.06145251 0.17353523 0.00000000)
		(2.07821229 0.16591781 0.00000000)
		(2.09497207 0.15974374 0.00000000)
		(2.11173184 0.15503971 0.00000000)
		(2.12849162 0.15182603 0.00000000)
		(2.14525140 0.15011659 0.00000000)
		(2.16201117 0.14991877 0.00000000)
		(2.17877095 0.15123343 0.00000000)
		(2.19553073 0.15405489 0.00000000)
		(2.21229050 0.15837096 0.00000000)
		(2.22905028 0.16416299 0.00000000)
		(2.24581006 0.17140595 0.00000000)
		(2.26256983 0.18006857 0.00000000)
		(2.27932961 0.19011340 0.00000000)
		(2.29608939 0.20149706 0.00000000)
		(2.31284916 0.21417035 0.00000000)
		(2.32960894 0.22807854 0.00000000)
		(2.34636872 0.24316152 0.00000000)
		(2.36312849 0.25935414 0.00000000)
		(2.37988827 0.27658644 0.00000000)
		(2.39664804 0.29478396 0.00000000)
		(2.41340782 0.31386810 0.00000000)
		(2.43016760 0.33375639 0.00000000)
		(2.44692737 0.35436291 0.00000000)
		(2.46368715 0.37559864 0.00000000)
		(2.48044693 0.39737183 0.00000000)
		(2.49720670 0.41958841 0.00000000)
		(2.51396648 0.44215239 0.00000000)
		(2.53072626 0.46496630 0.00000000)
		(2.54748603 0.48793157 0.00000000)
		(2.56424581 0.51094897 0.00000000)