/*--------------------------------*- C++ -*----------------------------------*\\
/*--------------------------------*- C++ -*----------------------------------*\\
| =========                 |                                                 |
| \\\\      /  F ield         | OpenFOAM: The Open Source CFD Toolbox           |
|  \\\\    /   O peration     | Version:  v2012                                 |
|   \\\\  /    A nd           | Website:  www.openfoam.com                      |
|    \\\\/     M anipulation  |                                                 |
\\*---------------------------------------------------------------------------*/
FoamFile
{
    version     2.0;
    format      ascii;
    class       dictionary;
    object      blockMeshDict;
}
// * * * * * * * * * * * * * * * * * * * * * * * * * * * * * * * * * * * * * //

scale   0.01;

xmin -1;
xmax 5;
ymin 0;
ymax 0.5;
zmin 0;
zmax 0.1;

vertices
(
    (-1.00000000 0.17947117 0.00000000)
    (4.00000000 0.21222785 0.00000000)
    (4.00000000 0.71222785 0.00000000)
    (-1.00000000 0.67947117 0.00000000)
    (-1.00000000 0.17947117 0.10000000)
    (4.00000000 0.21222785 0.10000000)
    (4.00000000 0.71222785 0.10000000)
    (-1.00000000 0.67947117 0.10000000)
);

blocks
(
    hex (0 1 2 3 4 5 6 7) (200 20 1) simpleGrading (1 1 1)
);

edges
(
	polyLine 0 1
	(
		(-1.00000000 0.17947117 0.00000000)
		(-0.98000000 0.17947117 0.00000000)
		(-0.96000000 0.17947117 0.00000000)
		(-0.94000000 0.17947117 0.00000000)
		(-0.92000000 0.17947117 0.00000000)
		(-0.90000000 0.17947117 0.00000000)
		(-0.88000000 0.17947117 0.00000000)
		(-0.86000000 0.17947117 0.00000000)
		(-0.84000000 0.17947117 0.00000000)
		(-0.82000000 0.17947117 0.00000000)
		(-0.80000000 0.17947117 0.00000000)
		(-0.78000000 0.17947117 0.00000000)
		(-0.76000000 0.17947117 0.00000000)
		(-0.74000000 0.17947117 0.00000000)
		(-0.72000000 0.17947117 0.00000000)
		(-0.70000000 0.17947117 0.00000000)
		(-0.68000000 0.17947117 0.00000000)
		(-0.66000000 0.17947117 0.00000000)
		(-0.64000000 0.17947117 0.00000000)
		(-0.62000000 0.17947117 0.00000000)
		(-0.60000000 0.17947117 0.00000000)
		(-0.58000000 0.17947117 0.00000000)
		(-0.56000000 0.17947117 0.00000000)
		(-0.54000000 0.17947117 0.00000000)
		(-0.52000000 0.17947117 0.00000000)
		(-0.50000000 0.17947117 0.00000000)
		(-0.48000000 0.17947117 0.00000000)
		(-0.46000000 0.17947117 0.00000000)
		(-0.44000000 0.17947117 0.00000000)
		(-0.42000000 0.17947117 0.00000000)
		(-0.40000000 0.17947117 0.00000000)
		(-0.38000000 0.17947117 0.00000000)
		(-0.36000000 0.17947117 0.00000000)
		(-0.34000000 0.17947117 0.00000000)
		(-0.32000000 0.17947117 0.00000000)
		(-0.30000000 0.17947117 0.00000000)
		(-0.28000000 0.17947117 0.00000000)
		(-0.26000000 0.17947117 0.00000000)
		(-0.24000000 0.17947117 0.00000000)
		(-0.22000000 0.17947117 0.00000000)
		(-0.20000000 0.17947117 0.00000000)
		(-0.18000000 0.17947117 0.00000000)
		(-0.16000000 0.17947117 0.00000000)
		(-0.14000000 0.17947117 0.00000000)
		(-0.12000000 0.17947117 0.00000000)
		(-0.10000000 0.17947117 0.00000000)
		(-0.08162011 0.17844220 0.00000000)
		(-0.06324022 0.17535528 0.00000000)
		(-0.04486034 0.17021043 0.00000000)
		(-0.02648045 0.16300763 0.00000000)
		(-0.00810056 0.15374688 0.00000000)
		(0.01027933 0.14242820 0.00000000)
		(0.02865922 0.12905157 0.00000000)
		(0.04703911 0.11361699 0.00000000)
		(0.06541899 0.09612448 0.00000000)
		(0.08379888 0.07657402 0.00000000)
		(0.10055866 0.05294790 0.00000000)
		(0.11731844 0.02881480 0.00000000)
		(0.13407821 0.00440578 0.00000000)
		(0.15083799 -0.02004541 0.00000000)
		(0.16759777 -0.04430467 0.00000000)
		(0.18435754 -0.06813971 0.00000000)
		(0.20111732 -0.09132229 0.00000000)
		(0.21787709 -0.11363045 0.00000000)
		(0.23463687 -0.13485058 0.00000000)
		(0.25139665 -0.15477949 0.00000000)
		(0.26815642 -0.17322637 0.00000000)
		(0.28491620 -0.19001457 0.00000000)
		(0.30167598 -0.20498335 0.00000000)
		(0.31843575 -0.21798937 0.00000000)
		(0.33519553 -0.22890812 0.00000000)
		(0.35195531 -0.23763503 0.00000000)
		(0.36871508 -0.24408655 0.00000000)
		(0.38547486 -0.24820089 0.00000000)
		(0.40223464 -0.24993867 0.00000000)
		(0.41899441 -0.24928325 0.00000000)
		(0.43575419 -0.24624089 0.00000000)
		(0.45251397 -0.24084074 0.00000000)
		(0.46927374 -0.23313450 0.00000000)
		(0.48603352 -0.22319596 0.00000000)
		(0.50279330 -0.21112028 0.00000000)
		(0.51955307 -0.19702308 0.00000000)
		(0.53631285 -0.18103936 0.00000000)
		(0.55307263 -0.16332215 0.00000000)
		(0.56983240 -0.14404111 0.00000000)
		(0.58659218 -0.12338085 0.00000000)
		(0.60335196 -0.10153920 0.00000000)
		(0.62011173 -0.07872529 0.00000000)
		(0.63687151 -0.05515757 0.00000000)
		(0.65363128 -0.03106171 0.00000000)
		(0.67039106 -0.00666844 0.00000000)
		(0.68715084 0.01778870 0.00000000)
		(0.70391061 0.04207550 0.00000000)
		(0.72067039 0.06595942 0.00000000)
		(0.73743017 0.08921177 0.00000000)
		(0.75418994 0.11160990 0.00000000)
		(0.77094972 0.13293935 0.00000000)
		(0.78770950 0.15299588 0.00000000)
		(0.80446927 0.17158745 0.00000000)
		(0.82122905 0.18853604 0.00000000)
		(0.83798883 0.20367937 0.00000000)
		(0.85474860 0.21687243 0.00000000)
		(0.87150838 0.22798890 0.00000000)
		(0.88826816 0.23692234 0.00000000)
		(0.90502793 0.24358721 0.00000000)
		(0.92178771 0.24791970 0.00000000)
		(0.93854749 0.24987830 0.00000000)
		(0.95530726 0.24944429 0.00000000)
		(0.97206704 0.24662180 0.00000000)
		(0.98882682 0.24143786 0.00000000)
		(1.00558659 0.23394212 0.00000000)
		(1.02234637 0.22420634 0.00000000)
		(1.03910615 0.21232375 0.00000000)
		(1.05586592 0.19840813 0.00000000)
		(1.07262570 0.18259271 0.00000000)
		(1.08938547 0.16502894 0.00000000)
		(1.10614525 0.14588498 0.00000000)
		(1.12290503 0.12534416 0.00000000)
		(1.13966480 0.10360314 0.00000000)
		(1.15642458 0.08087011 0.00000000)
		(1.17318436 0.05736273 0.00000000)
		(1.18994413 0.03330609 0.00000000)
		(1.20670391 0.00893054 0.00000000)
		(1.22346369 -0.01553052 0.00000000)
		(1.24022346 -0.03984287 0.00000000)
		(1.25698324 -0.06377372 0.00000000)
		(1.27374302 -0.08709393 0.00000000)
		(1.29050279 -0.10958020 0.00000000)
		(1.30726257 -0.13101722 0.00000000)
		(1.32402235 -0.15119972 0.00000000)
		(1.34078212 -0.16993447 0.00000000)
		(1.35754190 -0.18704206 0.00000000)
		(1.37430168 -0.20235870 0.00000000)
		(1.39106145 -0.21573771 0.00000000)
		(1.40782123 -0.22705100 0.00000000)
		(1.42458101 -0.23619024 0.00000000)
		(1.44134078 -0.24306792 0.00000000)
		(1.45810056 -0.24761818 0.00000000)
		(1.47486034 -0.24979746 0.00000000)
		(1.49162011 -0.24958488 0.00000000)
		(1.50837989 -0.24698249 0.00000000)
		(1.52513966 -0.24201520 0.00000000)
		(1.54189944 -0.23473057 0.00000000)
		(1.55865922 -0.22519835 0.00000000)
		(1.57541899 -0.21350983 0.00000000)
		(1.59217877 -0.19977691 0.00000000)
		(1.60893855 -0.18413110 0.00000000)
		(1.62569832 -0.16672220 0.00000000)
		(1.64245810 -0.14771690 0.00000000)
		(1.65921788 -0.12729719 0.00000000)
		(1.67597765 -0.10565859 0.00000000)
		(1.69273743 -0.08300829 0.00000000)
		(1.70949721 -0.05956318 0.00000000)
		(1.72625698 -0.03554773 0.00000000)
		(1.74301676 -0.01119191 0.00000000)
		(1.75977654 0.01327107 0.00000000)
		(1.77653631 0.03760698 0.00000000)
		(1.79329609 0.06158280 0.00000000)
		(1.81005587 0.08496896 0.00000000)
		(1.82681564 0.10754152 0.00000000)
		(1.84357542 0.12908435 0.00000000)
		(1.86033520 0.14939118 0.00000000)
		(1.87709497 0.16826756 0.00000000)
		(1.89385475 0.18553275 0.00000000)
		(1.91061453 0.20102144 0.00000000)
		(1.92737430 0.21458531 0.00000000)
		(1.94413408 0.22609449 0.00000000)
		(1.96089385 0.23543878 0.00000000)
		(1.97765363 0.24252870 0.00000000)
		(1.99441341 0.24729637 0.00000000)
		(2.01117318 0.24969614 0.00000000)
		(2.02793296 0.24970502 0.00000000)
		(2.04469274 0.24732294 0.00000000)
		(2.06145251 0.24257269 0.00000000)
		(2.07821229 0.23549978 0.00000000)
		(2.09497207 0.22617191 0.00000000)
		(2.11173184 0.21467841 0.00000000)
		(2.12849162 0.20112932 0.00000000)
		(2.14525140 0.18565439 0.00000000)
		(2.16201117 0.16840179 0.00000000)
		(2.17877095 0.14953671 0.00000000)
		(2.19553073 0.12923980 0.00000000)
		(2.21229050 0.10770539 0.00000000)
		(2.22905028 0.08513968 0.00000000)
		(2.24581006 0.06175875 0.00000000)
		(2.26256983 0.03778646 0.00000000)
		(2.27932961 0.01345237 0.00000000)
		(2.29608939 -0.01101054 0.00000000)
		(2.31284916 -0.03536801 0.00000000)
		(2.32960894 -0.05938683 0.00000000)
		(2.34636872 -0.08283702 0.00000000)
		(2.36312849 -0.10549402 0.00000000)
		(2.37988827 -0.12714090 0.00000000)
		(2.39664804 -0.14757039 0.00000000)
		(2.41340782 -0.16658686 0.00000000)
		(2.43016760 -0.18400824 0.00000000)
		(2.44692737 -0.19966771 0.00000000)
		(2.46368715 -0.21341533 0.00000000)
		(2.48044693 -0.22511945 0.00000000)
		(2.49720670 -0.23466803 0.00000000)
		(2.51396648 -0.24196961 0.00000000)
		(2.53072626 -0.24695430 0.00000000)
		(2.54748603 -0.24957436 0.00000000)
		(2.56424581 -0.24980470 0.00000000)
		(2.58100559 -0.24764312 0.00000000)
		(2.59776536 -0.24311031 0.00000000)
		(2.61452514 -0.23624969 0.00000000)
		(2.63128492 -0.22712693 0.00000000)
		(2.64804469 -0.21582939 0.00000000)
		(2.66480447 -0.20246525 0.00000000)
		(2.68156425 -0.18716248 0.00000000)
		(2.69832402 -0.17006759 0.00000000)
		(2.71508380 -0.15134427 0.00000000)
		(2.73184358 -0.13117181 0.00000000)
		(2.74860335 -0.10974335 0.00000000)
		(2.76536313 -0.08726409 0.00000000)
		(2.78212291 -0.06394926 0.00000000)
		(2.79888268 -0.04002210 0.00000000)
		(2.81564246 -0.01571172 0.00000000)
		(2.83240223 0.00874910 0.00000000)
		(2.84916201 0.03312614 0.00000000)
		(2.86592179 0.05718600 0.00000000)
		(2.88268156 0.08069829 0.00000000)
		(2.89944134 0.10343788 0.00000000)
		(2.91620112 0.12518704 0.00000000)
		(2.93296089 0.14573751 0.00000000)
		(2.95166480 0.15837067 0.00000000)
		(2.97036872 0.16967403 0.00000000)
		(2.98907263 0.17964758 0.00000000)
		(3.00777654 0.18829133 0.00000000)
		(3.02648045 0.19560526 0.00000000)
		(3.04518436 0.20158940 0.00000000)
		(3.06388827 0.20624372 0.00000000)
		(3.08259218 0.20956824 0.00000000)
		(3.10129609 0.21156295 0.00000000)
		(3.12000000 0.21222785 0.00000000)
		(3.14000000 0.21222785 0.00000000)
		(3.16000000 0.21222785 0.00000000)
		(3.18000000 0.21222785 0.00000000)
		(3.20000000 0.21222785 0.00000000)
		(3.22000000 0.21222785 0.00000000)
		(3.24000000 0.21222785 0.00000000)
		(3.26000000 0.21222785 0.00000000)
		(3.28000000 0.21222785 0.00000000)
		(3.30000000 0.21222785 0.00000000)
		(3.32000000 0.21222785 0.00000000)
		(3.34000000 0.21222785 0.00000000)
		(3.36000000 0.21222785 0.00000000)
		(3.38000000 0.21222785 0.00000000)
		(3.40000000 0.21222785 0.00000000)
		(3.42000000 0.21222785 0.00000000)
		(3.44000000 0.21222785 0.00000000)
		(3.46000000 0.21222785 0.00000000)
		(3.48000000 0.21222785 0.00000000)
		(3.50000000 0.21222785 0.00000000)
		(3.52000000 0.21222785 0.00000000)
		(3.54000000 0.21222785 0.00000000)
		(3.56000000 0.21222785 0.00000000)
		(3.58000000 0.21222785 0.00000000)
		(3.60000000 0.21222785 0.00000000)
		(3.62000000 0.21222785 0.00000000)
		(3.64000000 0.21222785 0.00000000)
		(3.66000000 0.21222785 0.00000000)
		(3.68000000 0.21222785 0.00000000)
		(3.70000000 0.21222785 0.00000000)
		(3.72000000 0.21222785 0.00000000)
		(3.74000000 0.21222785 0.00000000)
		(3.76000000 0.21222785 0.00000000)
		(3.78000000 0.21222785 0.00000000)
		(3.80000000 0.21222785 0.00000000)
		(3.82000000 0.21222785 0.00000000)
		(3.84000000 0.21222785 0.00000000)
		(3.86000000 0.21222785 0.00000000)
		(3.88000000 0.21222785 0.00000000)
		(3.90000000 0.21222785 0.00000000)
		(3.92000000 0.21222785 0.00000000)
		(3.94000000 0.21222785 0.00000000)
		(3.96000000 0.21222785 0.00000000)
		(3.98000000 0.21222785 0.00000000)
		(4.00000000 0.21222785 0.00000000)
	)
	polyLine 4 5
	(
		(-1.00000000 0.17947117 0.10000000)
		(-0.98000000 0.17947117 0.10000000)
		(-0.96000000 0.17947117 0.10000000)
		(-0.94000000 0.17947117 0.10000000)
		(-0.92000000 0.17947117 0.10000000)
		(-0.90000000 0.17947117 0.10000000)
		(-0.88000000 0.17947117 0.10000000)
		(-0.86000000 0.17947117 0.10000000)
		(-0.84000000 0.17947117 0.10000000)
		(-0.82000000 0.17947117 0.10000000)
		(-0.80000000 0.17947117 0.10000000)
		(-0.78000000 0.17947117 0.10000000)
		(-0.76000000 0.17947117 0.10000000)
		(-0.74000000 0.17947117 0.10000000)
		(-0.72000000 0.17947117 0.10000000)
		(-0.70000000 0.17947117 0.10000000)
		(-0.68000000 0.17947117 0.10000000)
		(-0.66000000 0.17947117 0.10000000)
		(-0.64000000 0.17947117 0.10000000)
		(-0.62000000 0.17947117 0.10000000)
		(-0.60000000 0.17947117 0.10000000)
		(-0.58000000 0.17947117 0.10000000)
		(-0.56000000 0.17947117 0.10000000)
		(-0.54000000 0.17947117 0.10000000)
		(-0.52000000 0.17947117 0.10000000)
		(-0.50000000 0.17947117 0.10000000)
		(-0.48000000 0.17947117 0.10000000)
		(-0.46000000 0.17947117 0.10000000)
		(-0.44000000 0.17947117 0.10000000)
		(-0.42000000 0.17947117 0.10000000)
		(-0.40000000 0.17947117 0.10000000)
		(-0.38000000 0.17947117 0.10000000)
		(-0.36000000 0.17947117 0.10000000)
		(-0.34000000 0.17947117 0.10000000)
		(-0.32000000 0.17947117 0.10000000)
		(-0.30000000 0.17947117 0.10000000)
		(-0.28000000 0.17947117 0.10000000)
		(-0.26000000 0.17947117 0.10000000)
		(-0.24000000 0.17947117 0.10000000)
		(-0.22000000 0.17947117 0.10000000)
		(-0.20000000 0.17947117 0.10000000)
		(-0.18000000 0.17947117 0.10000000)
		(-0.16000000 0.17947117 0.10000000)
		(-0.14000000 0.17947117 0.10000000)
		(-0.12000000 0.17947117 0.10000000)
		(-0.10000000 0.17947117 0.10000000)
		(-0.08162011 0.17844220 0.10000000)
		(-0.06324022 0.17535528 0.10000000)
		(-0.04486034 0.17021043 0.10000000)
		(-0.02648045 0.16300763 0.10000000)
		(-0.00810056 0.15374688 0.10000000)
		(0.01027933 0.14242820 0.10000000)
		(0.02865922 0.12905157 0.10000000)
		(0.04703911 0.11361699 0.10000000)
		(0.06541899 0.09612448 0.10000000)
		(0.08379888 0.07657402 0.10000000)
		(0.10055866 0.05294790 0.10000000)
		(0.11731844 0.02881480 0.10000000)
		(0.13407821 0.00440578 0.10000000)
		(0.15083799 -0.02004541 0.10000000)
		(0.16759777 -0.04430467 0.10000000)
		(0.18435754 -0.06813971 0.10000000)
		(0.20111732 -0.09132229 0.10000000)
		(0.21787709 -0.11363045 0.10000000)
		(0.23463687 -0.13485058 0.10000000)
		(0.25139665 -0.15477949 0.10000000)
		(0.26815642 -0.17322637 0.10000000)
		(0.28491620 -0.19001457 0.10000000)
		(0.30167598 -0.20498335 0.10000000)
		(0.31843575 -0.21798937 0.10000000)
		(0.33519553 -0.22890812 0.10000000)
		(0.35195531 -0.23763503 0.10000000)
		(0.36871508 -0.24408655 0.10000000)
		(0.38547486 -0.24820089 0.10000000)
		(0.40223464 -0.24993867 0.10000000)
		(0.41899441 -0.24928325 0.10000000)
		(0.43575419 -0.24624089 0.10000000)
		(0.45251397 -0.24084074 0.10000000)
		(0.46927374 -0.23313450 0.10000000)
		(0.48603352 -0.22319596 0.10000000)
		(0.50279330 -0.21112028 0.10000000)
		(0.51955307 -0.19702308 0.10000000)
		(0.53631285 -0.18103936 0.10000000)
		(0.55307263 -0.16332215 0.10000000)
		(0.56983240 -0.14404111 0.10000000)
		(0.58659218 -0.12338085 0.10000000)
		(0.60335196 -0.10153920 0.10000000)
		(0.62011173 -0.07872529 0.10000000)
		(0.63687151 -0.05515757 0.10000000)
		(0.65363128 -0.03106171 0.10000000)
		(0.67039106 -0.00666844 0.10000000)
		(0.68715084 0.01778870 0.10000000)
		(0.70391061 0.04207550 0.10000000)
		(0.72067039 0.06595942 0.10000000)
		(0.73743017 0.08921177 0.10000000)
		(0.75418994 0.11160990 0.10000000)
		(0.77094972 0.13293935 0.10000000)
		(0.78770950 0.15299588 0.10000000)
		(0.80446927 0.17158745 0.10000000)
		(0.82122905 0.18853604 0.10000000)
		(0.83798883 0.20367937 0.10000000)
		(0.85474860 0.21687243 0.10000000)
		(0.87150838 0.22798890 0.10000000)
		(0.88826816 0.23692234 0.10000000)
		(0.90502793 0.24358721 0.10000000)
		(0.92178771 0.24791970 0.10000000)
		(0.93854749 0.24987830 0.10000000)
		(0.95530726 0.24944429 0.10000000)
		(0.97206704 0.24662180 0.10000000)
		(0.98882682 0.24143786 0.10000000)
		(1.00558659 0.23394212 0.10000000)
		(1.02234637 0.22420634 0.10000000)
		(1.03910615 0.21232375 0.10000000)
		(1.05586592 0.19840813 0.10000000)
		(1.07262570 0.18259271 0.10000000)
		(1.08938547 0.16502894 0.10000000)
		(1.10614525 0.14588498 0.10000000)
		(1.12290503 0.12534416 0.10000000)
		(1.13966480 0.10360314 0.10000000)
		(1.15642458 0.08087011 0.10000000)
		(1.17318436 0.05736273 0.10000000)
		(1.18994413 0.03330609 0.10000000)
		(1.20670391 0.00893054 0.10000000)
		(1.22346369 -0.01553052 0.10000000)
		(1.24022346 -0.03984287 0.10000000)
		(1.25698324 -0.06377372 0.10000000)
		(1.27374302 -0.08709393 0.10000000)
		(1.29050279 -0.10958020 0.10000000)
		(1.30726257 -0.13101722 0.10000000)
		(1.32402235 -0.15119972 0.10000000)
		(1.34078212 -0.16993447 0.10000000)
		(1.35754190 -0.18704206 0.10000000)
		(1.37430168 -0.20235870 0.10000000)
		(1.39106145 -0.21573771 0.10000000)
		(1.40782123 -0.22705100 0.10000000)
		(1.42458101 -0.23619024 0.10000000)
		(1.44134078 -0.24306792 0.10000000)
		(1.45810056 -0.24761818 0.10000000)
		(1.47486034 -0.24979746 0.10000000)
		(1.49162011 -0.24958488 0.10000000)
		(1.50837989 -0.24698249 0.10000000)
		(1.52513966 -0.24201520 0.10000000)
		(1.54189944 -0.23473057 0.10000000)
		(1.55865922 -0.22519835 0.10000000)
		(1.57541899 -0.21350983 0.10000000)
		(1.59217877 -0.19977691 0.10000000)
		(1.60893855 -0.18413110 0.10000000)
		(1.62569832 -0.16672220 0.10000000)
		(1.64245810 -0.14771690 0.10000000)
		(1.65921788 -0.12729719 0.10000000)
		(1.67597765 -0.10565859 0.10000000)
		(1.69273743 -0.08300829 0.10000000)
		(1.70949721 -0.05956318 0.10000000)
		(1.72625698 -0.03554773 0.10000000)
		(1.74301676 -0.01119191 0.10000000)
		(1.75977654 0.01327107 0.10000000)
		(1.77653631 0.03760698 0.10000000)
		(1.79329609 0.06158280 0.10000000)
		(1.81005587 0.08496896 0.10000000)
		(1.82681564 0.10754152 0.10000000)
		(1.84357542 0.12908435 0.10000000)
		(1.86033520 0.14939118 0.10000000)
		(1.87709497 0.16826756 0.10000000)
		(1.89385475 0.18553275 0.10000000)
		(1.91061453 0.20102144 0.10000000)
		(1.92737430 0.21458531 0.10000000)
		(1.94413408 0.22609449 0.10000000)
		(1.96089385 0.23543878 0.10000000)
		(1.97765363 0.24252870 0.10000000)
		(1.99441341 0.24729637 0.10000000)
		(2.01117318 0.24969614 0.10000000)
		(2.02793296 0.24970502 0.10000000)
		(2.04469274 0.24732294 0.10000000)
		(2.06145251 0.24257269 0.10000000)
		(2.07821229 0.23549978 0.10000000)
		(2.09497207 0.22617191 0.10000000)
		(2.11173184 0.21467841 0.10000000)
		(2.12849162 0.20112932 0.10000000)
		(2.14525140 0.18565439 0.10000000)
		(2.16201117 0.16840179 0.10000000)
		(2.17877095 0.14953671 0.10000000)
		(2.19553073 0.12923980 0.10000000)
		(2.21229050 0.10770539 0.10000000)
		(2.22905028 0.08513968 0.10000000)
		(2.24581006 0.06175875 0.10000000)
		(2.26256983 0.03778646 0.10000000)
		(2.27932961 0.01345237 0.10000000)
		(2.29608939 -0.01101054 0.10000000)
		(2.31284916 -0.03536801 0.10000000)
		(2.32960894 -0.05938683 0.10000000)
		(2.34636872 -0.08283702 0.10000000)
		(2.36312849 -0.10549402 0.10000000)
		(2.37988827 -0.12714090 0.10000000)
		(2.39664804 -0.14757039 0.10000000)
		(2.41340782 -0.16658686 0.10000000)
		(2.43016760 -0.18400824 0.10000000)
		(2.44692737 -0.19966771 0.10000000)
		(2.46368715 -0.21341533 0.10000000)
		(2.48044693 -0.22511945 0.10000000)
		(2.49720670 -0.23466803 0.10000000)
		(2.51396648 -0.24196961 0.10000000)
		(2.53072626 -0.24695430 0.10000000)
		(2.54748603 -0.24957436 0.10000000)
		(2.56424581 -0.24980470 0.10000000)
		(2.58100559 -0.24764312 0.10000000)
		(2.59776536 -0.24311031 0.10000000)
		(2.61452514 -0.23624969 0.10000000)
		(2.63128492 -0.22712693 0.10000000)
		(2.64804469 -0.21582939 0.10000000)
		(2.66480447 -0.20246525 0.10000000)
		(2.68156425 -0.18716248 0.10000000)
		(2.69832402 -0.17006759 0.10000000)
		(2.71508380 -0.15134427 0.10000000)
		(2.73184358 -0.13117181 0.10000000)
		(2.74860335 -0.10974335 0.10000000)
		(2.76536313 -0.08726409 0.10000000)
		(2.78212291 -0.06394926 0.10000000)
		(2.79888268 -0.04002210 0.10000000)
		(2.81564246 -0.01571172 0.10000000)
		(2.83240223 0.00874910 0.10000000)
		(2.84916201 0.03312614 0.10000000)
		(2.86592179 0.05718600 0.10000000)
		(2.88268156 0.08069829 0.10000000)
		(2.89944134 0.10343788 0.10000000)
		(2.91620112 0.12518704 0.10000000)
		(2.93296089 0.14573751 0.10000000)
		(2.95166480 0.15837067 0.10000000)
		(2.97036872 0.16967403 0.10000000)
		(2.98907263 0.17964758 0.10000000)
		(3.00777654 0.18829133 0.10000000)
		(3.02648045 0.19560526 0.10000000)
		(3.04518436 0.20158940 0.10000000)
		(3.06388827 0.20624372 0.10000000)
		(3.08259218 0.20956824 0.10000000)
		(3.10129609 0.21156295 0.10000000)
		(3.12000000 0.21222785 0.10000000)
		(3.14000000 0.21222785 0.10000000)
		(3.16000000 0.21222785 0.10000000)
		(3.18000000 0.21222785 0.10000000)
		(3.20000000 0.21222785 0.10000000)
		(3.22000000 0.21222785 0.10000000)
		(3.24000000 0.21222785 0.10000000)
		(3.26000000 0.21222785 0.10000000)
		(3.28000000 0.21222785 0.10000000)
		(3.30000000 0.21222785 0.10000000)
		(3.32000000 0.21222785 0.10000000)
		(3.34000000 0.21222785 0.10000000)
		(3.36000000 0.21222785 0.10000000)
		(3.38000000 0.21222785 0.10000000)
		(3.40000000 0.21222785 0.10000000)
		(3.42000000 0.21222785 0.10000000)
		(3.44000000 0.21222785 0.10000000)
		(3.46000000 0.21222785 0.10000000)
		(3.48000000 0.21222785 0.10000000)
		(3.50000000 0.21222785 0.10000000)
		(3.52000000 0.21222785 0.10000000)
		(3.54000000 0.21222785 0.10000000)
		(3.56000000 0.21222785 0.10000000)
		(3.58000000 0.21222785 0.10000000)
		(3.60000000 0.21222785 0.10000000)
		(3.62000000 0.21222785 0.10000000)
		(3.64000000 0.21222785 0.10000000)
		(3.66000000 0.21222785 0.10000000)
		(3.68000000 0.21222785 0.10000000)
		(3.70000000 0.21222785 0.10000000)
		(3.72000000 0.21222785 0.10000000)
		(3.74000000 0.21222785 0.10000000)
		(3.76000000 0.21222785 0.10000000)
		(3.78000000 0.21222785 0.10000000)
		(3.80000000 0.21222785 0.10000000)
		(3.82000000 0.21222785 0.10000000)
		(3.84000000 0.21222785 0.10000000)
		(3.86000000 0.21222785 0.10000000)
		(3.88000000 0.21222785 0.10000000)
		(3.90000000 0.21222785 0.10000000)
		(3.92000000 0.21222785 0.10000000)
		(3.94000000 0.21222785 0.10000000)
		(3.96000000 0.21222785 0.10000000)
		(3.98000000 0.21222785 0.10000000)
		(4.00000000 0.21222785 0.10000000)
	)
	polyLine 3 2
	(
		(-1.00000000 0.67947117 0.00000000)
		(-0.98000000 0.68140159 0.00000000)
		(-0.96000000 0.68333202 0.00000000)
		(-0.94000000 0.68526244 0.00000000)
		(-0.92000000 0.68719287 0.00000000)
		(-0.90000000 0.68912329 0.00000000)
		(-0.88000000 0.69105371 0.00000000)
		(-0.86000000 0.69298414 0.00000000)
		(-0.84000000 0.69491456 0.00000000)
		(-0.82000000 0.69684498 0.00000000)
		(-0.80000000 0.69877541 0.00000000)
		(-0.78000000 0.70070583 0.00000000)
		(-0.76000000 0.70263626 0.00000000)
		(-0.74000000 0.70456668 0.00000000)
		(-0.72000000 0.70649710 0.00000000)
		(-0.70000000 0.70842753 0.00000000)
		(-0.68000000 0.71035795 0.00000000)
		(-0.66000000 0.71228837 0.00000000)
		(-0.64000000 0.71421880 0.00000000)
		(-0.62000000 0.71614922 0.00000000)
		(-0.60000000 0.71807965 0.00000000)
		(-0.58000000 0.72001007 0.00000000)
		(-0.56000000 0.72194049 0.00000000)
		(-0.54000000 0.72387092 0.00000000)
		(-0.52000000 0.72580134 0.00000000)
		(-0.50000000 0.72773176 0.00000000)
		(-0.48000000 0.72966219 0.00000000)
		(-0.46000000 0.73159261 0.00000000)
		(-0.44000000 0.73352303 0.00000000)
		(-0.42000000 0.73545346 0.00000000)
		(-0.40000000 0.73738388 0.00000000)
		(-0.38000000 0.73931431 0.00000000)
		(-0.36000000 0.74124473 0.00000000)
		(-0.34000000 0.74317515 0.00000000)
		(-0.32000000 0.74510558 0.00000000)
		(-0.30000000 0.74703600 0.00000000)
		(-0.28000000 0.74896642 0.00000000)
		(-0.26000000 0.75089685 0.00000000)
		(-0.24000000 0.75282727 0.00000000)
		(-0.22000000 0.75475770 0.00000000)
		(-0.20000000 0.75668812 0.00000000)
		(-0.18000000 0.75861854 0.00000000)
		(-0.16000000 0.76054897 0.00000000)
		(-0.14000000 0.76247939 0.00000000)
		(-0.12000000 0.76440981 0.00000000)
		(-0.10000000 0.76634024 0.00000000)
		(-0.08162011 0.76874135 0.00000000)
		(-0.06324022 0.76728871 0.00000000)
		(-0.04486034 0.76198232 0.00000000)
		(-0.02648045 0.75282218 0.00000000)
		(-0.00810056 0.73980828 0.00000000)
		(0.01027933 0.72294064 0.00000000)
		(0.02865922 0.70221925 0.00000000)
		(0.04703911 0.67764410 0.00000000)
		(0.06541899 0.64921521 0.00000000)
		(0.08379888 0.61693256 0.00000000)
		(0.10055866 0.58085423 0.00000000)
		(0.11731844 0.54400171 0.00000000)
		(0.13407821 0.50672786 0.00000000)
		(0.15083799 0.46938960 0.00000000)
		(0.16759777 0.43234443 0.00000000)
		(0.18435754 0.39594708 0.00000000)
		(0.20111732 0.36054605 0.00000000)
		(0.21787709 0.32648031 0.00000000)
		(0.23463687 0.29407606 0.00000000)
		(0.25139665 0.26364356 0.00000000)
		(0.26815642 0.23547421 0.00000000)
		(0.28491620 0.20983775 0.00000000)
		(0.30167598 0.18697963 0.00000000)
		(0.31843575 0.16711874 0.00000000)
		(0.33519553 0.15044524 0.00000000)
		(0.35195531 0.13711879 0.00000000)
		(0.36871508 0.12726699 0.00000000)
		(0.38547486 0.12098416 0.00000000)
		(0.40223464 0.11833048 0.00000000)
		(0.41899441 0.11933135 0.00000000)
		(0.43575419 0.12397718 0.00000000)
		(0.45251397 0.13222350 0.00000000)
		(0.46927374 0.14399133 0.00000000)
		(0.48603352 0.15916801 0.00000000)
		(0.50279330 0.17760821 0.00000000)
		(0.51955307 0.19913537 0.00000000)
		(0.53631285 0.22354336 0.00000000)
		(0.55307263 0.25059847 0.00000000)
		(0.56983240 0.28004164 0.00000000)
		(0.58659218 0.31159094 0.00000000)
		(0.60335196 0.34494430 0.00000000)
		(0.62011173 0.37978234 0.00000000)
		(0.63687151 0.41577148 0.00000000)
		(0.65363128 0.45256712 0.00000000)
		(0.67039106 0.48981695 0.00000000)
		(0.68715084 0.52716428 0.00000000)
		(0.70391061 0.56425150 0.00000000)
		(0.72067039 0.60072351 0.00000000)
		(0.73743017 0.63623107 0.00000000)
		(0.75418994 0.67043420 0.00000000)
		(0.77094972 0.70300539 0.00000000)
		(0.78770950 0.73363277 0.00000000)
		(0.80446927 0.76202307 0.00000000)
		(0.82122905 0.78790447 0.00000000)
		(0.83798883 0.81102912 0.00000000)
		(0.85474860 0.83117563 0.00000000)
		(0.87150838 0.84815107 0.00000000)
		(0.88826816 0.86179290 0.00000000)
		(0.90502793 0.87197051 0.00000000)
		(0.92178771 0.87858644 0.00000000)
		(0.93854749 0.88157733 0.00000000)
		(0.95530726 0.88091457 0.00000000)
		(0.97206704 0.87660448 0.00000000)
		(0.98882682 0.86868834 0.00000000)
		(1.00558659 0.85724194 0.00000000)
		(1.02234637 0.84237490 0.00000000)
		(1.03910615 0.82422956 0.00000000)
		(1.05586592 0.80297966 0.00000000)
		(1.07262570 0.77882869 0.00000000)
		(1.08938547 0.75200788 0.00000000)
		(1.10614525 0.72277406 0.00000000)
		(1.12290503 0.69140713 0.00000000)
		(1.13966480 0.65820745 0.00000000)
		(1.15642458 0.62349291 0.00000000)
		(1.17318436 0.58759590 0.00000000)
		(1.18994413 0.55086015 0.00000000)
		(1.20670391 0.51363740 0.00000000)
		(1.22346369 0.47628408 0.00000000)
		(1.24022346 0.43915783 0.00000000)
		(1.25698324 0.40261416 0.00000000)
		(1.27374302 0.36700298 0.00000000)
		(1.29050279 0.33266526 0.00000000)
		(1.30726257 0.29992981 0.00000000)
		(1.32402235 0.26911006 0.00000000)
		(1.34078212 0.24050111 0.00000000)
		(1.35754190 0.21437692 0.00000000)
		(1.37430168 0.19098761 0.00000000)
		(1.39106145 0.17055715 0.00000000)
		(1.40782123 0.15328116 0.00000000)
		(1.42458101 0.13932506 0.00000000)
		(1.44134078 0.12882248 0.00000000)
		(1.45810056 0.12187399 0.00000000)
		(1.47486034 0.11854612 0.00000000)
		(1.49162011 0.11887074 0.00000000)
		(1.50837989 0.12284473 0.00000000)
		(1.52513966 0.13043005 0.00000000)
		(1.54189944 0.14155406 0.00000000)
		(1.55865922 0.15611025 0.00000000)
		(1.57541899 0.17395924 0.00000000)
		(1.59217877 0.19493013 0.00000000)
		(1.60893855 0.21882211 0.00000000)
		(1.62569832 0.24540642 0.00000000)
		(1.64245810 0.27442851 0.00000000)
		(1.65921788 0.30561048 0.00000000)
		(1.67597765 0.33865376 0.00000000)
		(1.69273743 0.37324196 0.00000000)
		(1.70949721 0.40904389 0.00000000)
		(1.72625698 0.44571674 0.00000000)
		(1.74301676 0.48290936 0.00000000)
		(1.75977654 0.52026563 0.00000000)
		(1.77653631 0.55742785 0.00000000)
		(1.79329609 0.59404018 0.00000000)
		(1.81005587 0.62975207 0.00000000)
		(1.82681564 0.66422156 0.00000000)
		(1.84357542 0.69711860 0.00000000)
		(1.86033520 0.72812820 0.00000000)
		(1.87709497 0.75695343 0.00000000)
		(1.89385475 0.78331829 0.00000000)
		(1.91061453 0.80697033 0.00000000)
		(1.92737430 0.82768308 0.00000000)
		(1.94413408 0.84525820 0.00000000)
		(1.96089385 0.85952742 0.00000000)
		(1.97765363 0.87035411 0.00000000)
		(1.99441341 0.87763459 0.00000000)
		(2.01117318 0.88129916 0.00000000)
		(2.02793296 0.88131272 0.00000000)
		(2.04469274 0.87767516 0.00000000)
		(2.06145251 0.87042128 0.00000000)
		(2.07821229 0.85962057 0.00000000)
		(2.09497207 0.84537642 0.00000000)
		(2.11173184 0.82782524 0.00000000)
		(2.12849162 0.80713507 0.00000000)
		(2.14525140 0.78350404 0.00000000)
		(2.16201117 0.75715841 0.00000000)
		(2.17877095 0.72835044 0.00000000)
		(2.19553073 0.69735598 0.00000000)
		(2.21229050 0.66447180 0.00000000)
		(2.22905028 0.63001278 0.00000000)
		(2.24581006 0.59430886 0.00000000)
		(2.26256983 0.55770192 0.00000000)
		(2.27932961 0.52054247 0.00000000)
		(2.29608939 0.48318633 0.00000000)
		(2.31284916 0.44599118 0.00000000)
		(2.32960894 0.40931317 0.00000000)
		(2.34636872 0.37350351 0.00000000)
		(2.36312849 0.33890507 0.00000000)
		(2.37988827 0.30584914 0.00000000)
		(2.39664804 0.27465224 0.00000000)
		(2.41340782 0.24561308 0.00000000)
		(2.43016760 0.21900972 0.00000000)
		(2.44692737 0.19509689 0.00000000)
		(2.46368715 0.17410355 0.00000000)
		(2.48044693 0.15623073 0.00000000)
		(2.49720670 0.14164956 0.00000000)
		(2.51396648 0.13049965 0.00000000)
		(2.53072626 0.12288777 0.00000000)
		(2.54748603 0.11888681 0.00000000)
		(2.56424581 0.11853506 0.00000000)