/*--------------------------------*- C++ -*----------------------------------*\\
/*--------------------------------*- C++ -*----------------------------------*\\
| =========                 |                                                 |
| \\\\      /  F ield         | OpenFOAM: The Open Source CFD Toolbox           |
|  \\\\    /   O peration     | Version:  v2012                                 |
|   \\\\  /    A nd           | Website:  www.openfoam.com                      |
|    \\\\/     M anipulation  |                                                 |
\\*---------------------------------------------------------------------------*/
FoamFile
{
    version     2.0;
    format      ascii;
    class       dictionary;
    object      blockMeshDict;
}
// * * * * * * * * * * * * * * * * * * * * * * * * * * * * * * * * * * * * * //

scale   0.01;

xmin -1;
xmax 5;
ymin 0;
ymax 0.5;
zmin 0;
zmax 0.1;

vertices
(
    (-1.00000000 0.23523069 0.00000000)
    (4.00000000 -0.04139036 0.00000000)
    (4.00000000 0.45860964 0.00000000)
    (-1.00000000 0.73523069 0.00000000)
    (-1.00000000 0.23523069 0.10000000)
    (4.00000000 -0.04139036 0.10000000)
    (4.00000000 0.45860964 0.10000000)
    (-1.00000000 0.73523069 0.10000000)
);

blocks
(
    hex (0 1 2 3 4 5 6 7) (200 20 1) simpleGrading (1 1 1)
);

edges
(
	polyLine 0 1
	(
		(-1.00000000 0.23523069 0.00000000)
		(-0.98000000 0.23523069 0.00000000)
		(-0.96000000 0.23523069 0.00000000)
		(-0.94000000 0.23523069 0.00000000)
		(-0.92000000 0.23523069 0.00000000)
		(-0.90000000 0.23523069 0.00000000)
		(-0.88000000 0.23523069 0.00000000)
		(-0.86000000 0.23523069 0.00000000)
		(-0.84000000 0.23523069 0.00000000)
		(-0.82000000 0.23523069 0.00000000)
		(-0.80000000 0.23523069 0.00000000)
		(-0.78000000 0.23523069 0.00000000)
		(-0.76000000 0.23523069 0.00000000)
		(-0.74000000 0.23523069 0.00000000)
		(-0.72000000 0.23523069 0.00000000)
		(-0.70000000 0.23523069 0.00000000)
		(-0.68000000 0.23523069 0.00000000)
		(-0.66000000 0.23523069 0.00000000)
		(-0.64000000 0.23523069 0.00000000)
		(-0.62000000 0.23523069 0.00000000)
		(-0.60000000 0.23523069 0.00000000)
		(-0.58000000 0.23523069 0.00000000)
		(-0.56000000 0.23523069 0.00000000)
		(-0.54000000 0.23523069 0.00000000)
		(-0.52000000 0.23523069 0.00000000)
		(-0.50000000 0.23523069 0.00000000)
		(-0.48000000 0.23523069 0.00000000)
		(-0.46000000 0.23523069 0.00000000)
		(-0.44000000 0.23523069 0.00000000)
		(-0.42000000 0.23523069 0.00000000)
		(-0.40000000 0.23523069 0.00000000)
		(-0.38000000 0.23523069 0.00000000)
		(-0.36000000 0.23523069 0.00000000)
		(-0.34000000 0.23523069 0.00000000)
		(-0.32000000 0.23523069 0.00000000)
		(-0.30000000 0.23523069 0.00000000)
		(-0.28000000 0.23523069 0.00000000)
		(-0.26000000 0.23523069 0.00000000)
		(-0.24000000 0.23523069 0.00000000)
		(-0.22000000 0.23523069 0.00000000)
		(-0.20000000 0.23523069 0.00000000)
		(-0.18000000 0.23523069 0.00000000)
		(-0.16000000 0.23523069 0.00000000)
		(-0.14000000 0.23523069 0.00000000)
		(-0.12000000 0.23523069 0.00000000)
		(-0.10000000 0.23523069 0.00000000)
		(-0.08162011 0.23537330 0.00000000)
		(-0.06324022 0.23580115 0.00000000)
		(-0.04486034 0.23651424 0.00000000)
		(-0.02648045 0.23751256 0.00000000)
		(-0.00810056 0.23879611 0.00000000)
		(0.01027933 0.24036489 0.00000000)
		(0.02865922 0.24221891 0.00000000)
		(0.04703911 0.24435816 0.00000000)
		(0.06541899 0.24678265 0.00000000)
		(0.08379888 0.24949237 0.00000000)
		(0.10055866 0.24735567 0.00000000)
		(0.11731844 0.24356325 0.00000000)
		(0.13407821 0.23814051 0.00000000)
		(0.15083799 0.23112372 0.00000000)
		(0.16759777 0.22255988 0.00000000)
		(0.18435754 0.21250629 0.00000000)
		(0.20111732 0.20103025 0.00000000)
		(0.21787709 0.18820858 0.00000000)
		(0.23463687 0.17412711 0.00000000)
		(0.25139665 0.15888009 0.00000000)
		(0.26815642 0.14256958 0.00000000)
		(0.28491620 0.12530475 0.00000000)
		(0.30167598 0.10720118 0.00000000)
		(0.31843575 0.08838003 0.00000000)
		(0.33519553 0.06896730 0.00000000)
		(0.35195531 0.04909293 0.00000000)
		(0.36871508 0.02888994 0.00000000)
		(0.38547486 0.00849357 0.00000000)
		(0.40223464 -0.01195965 0.00000000)
		(0.41899441 -0.03233281 0.00000000)
		(0.43575419 -0.05248955 0.00000000)
		(0.45251397 -0.07229495 0.00000000)
		(0.46927374 -0.09161642 0.00000000)
		(0.48603352 -0.11032465 0.00000000)
		(0.50279330 -0.12829439 0.00000000)
		(0.51955307 -0.14540538 0.00000000)
		(0.53631285 -0.16154307 0.00000000)
		(0.55307263 -0.17659945 0.00000000)
		(0.56983240 -0.19047373 0.00000000)
		(0.58659218 -0.20307304 0.00000000)
		(0.60335196 -0.21431304 0.00000000)
		(0.62011173 -0.22411851 0.00000000)
		(0.63687151 -0.23242380 0.00000000)
		(0.65363128 -0.23917332 0.00000000)
		(0.67039106 -0.24432189 0.00000000)
		(0.68715084 -0.24783506 0.00000000)
		(0.70391061 -0.24968930 0.00000000)
		(0.72067039 -0.24987220 0.00000000)
		(0.73743017 -0.24838254 0.00000000)
		(0.75418994 -0.24523029 0.00000000)
		(0.77094972 -0.24043654 0.00000000)
		(0.78770950 -0.23403340 0.00000000)
		(0.80446927 -0.22606371 0.00000000)
		(0.82122905 -0.21658083 0.00000000)
		(0.83798883 -0.20564823 0.00000000)
		(0.85474860 -0.19333908 0.00000000)
		(0.87150838 -0.17973579 0.00000000)
		(0.88826816 -0.16492941 0.00000000)
		(0.90502793 -0.14901904 0.00000000)
		(0.92178771 -0.13211119 0.00000000)
		(0.93854749 -0.11431903 0.00000000)
		(0.95530726 -0.09576165 0.00000000)
		(0.97206704 -0.07656328 0.00000000)
		(0.98882682 -0.05685242 0.00000000)
		(1.00558659 -0.03676101 0.00000000)
		(1.02234637 -0.01642354 0.00000000)
		(1.03910615 0.00402388 0.00000000)
		(1.05586592 0.02444435 0.00000000)
		(1.07262570 0.04470121 0.00000000)
		(1.08938547 0.06465885 0.00000000)
		(1.10614525 0.08418368 0.00000000)
		(1.12290503 0.10314502 0.00000000)
		(1.13966480 0.12141593 0.00000000)
		(1.15642458 0.13887413 0.00000000)
		(1.17318436 0.15540276 0.00000000)
		(1.18994413 0.17089116 0.00000000)
		(1.20670391 0.18523568 0.00000000)
		(1.22346369 0.19834029 0.00000000)
		(1.24022346 0.21011728 0.00000000)
		(1.25698324 0.22048781 0.00000000)
		(1.27374302 0.22938247 0.00000000)
		(1.29050279 0.23674172 0.00000000)
		(1.30726257 0.24251630 0.00000000)
		(1.32402235 0.24666755 0.00000000)
		(1.34078212 0.24916770 0.00000000)
		(1.35754190 0.24999999 0.00000000)
		(1.37430168 0.24915887 0.00000000)
		(1.39106145 0.24664997 0.00000000)
		(1.40782123 0.24249007 0.00000000)
		(1.42458101 0.23670702 0.00000000)
		(1.44134078 0.22933953 0.00000000)
		(1.45810056 0.22043692 0.00000000)
		(1.47486034 0.21005878 0.00000000)
		(1.49162011 0.19827457 0.00000000)
		(1.50837989 0.18516318 0.00000000)
		(1.52513966 0.17081237 0.00000000)
		(1.54189944 0.15531819 0.00000000)
		(1.55865922 0.13878437 0.00000000)
		(1.57541899 0.12132157 0.00000000)
		(1.59217877 0.10304669 0.00000000)
		(1.60893855 0.08408204 0.00000000)
		(1.62569832 0.06455458 0.00000000)
		(1.64245810 0.04459501 0.00000000)
		(1.65921788 0.02433693 0.00000000)
		(1.67597765 0.00391596 0.00000000)
		(1.69273743 -0.01653123 0.00000000)
		(1.70949721 -0.03686777 0.00000000)
		(1.72625698 -0.05695752 0.00000000)
		(1.74301676 -0.07666602 0.00000000)
		(1.75977654 -0.09586135 0.00000000)
		(1.77653631 -0.11441501 0.00000000)
		(1.79329609 -0.13220281 0.00000000)
		(1.81005587 -0.14910569 0.00000000)
		(1.82681564 -0.16501050 0.00000000)
		(1.84357542 -0.17981080 0.00000000)
		(1.86033520 -0.19340749 0.00000000)
		(1.87709497 -0.20570958 0.00000000)
		(1.89385475 -0.21663472 0.00000000)
		(1.91061453 -0.22610978 0.00000000)
		(1.92737430 -0.23407133 0.00000000)
		(1.94413408 -0.24046609 0.00000000)
		(1.96089385 -0.24525125 0.00000000)
		(1.97765363 -0.24839477 0.00000000)
		(1.99441341 -0.24987563 0.00000000)
		(2.01117318 -0.24968389 0.00000000)
		(2.02793296 -0.24782086 0.00000000)
		(2.04469274 -0.24429900 0.00000000)
		(2.06145251 -0.23914188 0.00000000)
		(2.07821229 -0.23238402 0.00000000)
		(2.09497207 -0.22407066 0.00000000)
		(2.11173184 -0.21425745 0.00000000)
		(2.12849162 -0.20301007 0.00000000)
		(2.14525140 -0.19040380 0.00000000)
		(2.16201117 -0.17652304 0.00000000)
		(2.17877095 -0.16146068 0.00000000)
		(2.19553073 -0.14531757 0.00000000)
		(2.21229050 -0.12820174 0.00000000)
		(2.22905028 -0.11022778 0.00000000)
		(2.24581006 -0.09151599 0.00000000)
		(2.26256983 -0.07219162 0.00000000)
		(2.27932961 -0.05238402 0.00000000)
		(2.29608939 -0.03222578 0.00000000)
		(2.31284916 -0.01185184 0.00000000)
		(2.32960894 0.00860144 0.00000000)
		(2.34636872 0.02899715 0.00000000)
		(2.36312849 0.04919875 0.00000000)
		(2.37988827 0.06907104 0.00000000)
		(2.39664804 0.08848099 0.00000000)
		(2.41340782 0.10729867 0.00000000)
		(2.43016760 0.12539814 0.00000000)
		(2.44692737 0.14265823 0.00000000)
		(2.46368715 0.15896341 0.00000000)
		(2.48044693 0.17420454 0.00000000)
		(2.49720670 0.18827961 0.00000000)
		(2.51396648 0.20109439 0.00000000)
		(2.53072626 0.21256312 0.00000000)
		(2.54748603 0.22260902 0.00000000)
		(2.56424581 0.23116485 0.00000000)
		(2.58100559 0.23817333 0.00000000)
		(2.59776536 0.24358757 0.00000000)
		(2.61452514 0.24737130 0.00000000)
		(2.63128492 0.24949922 0.00000000)
		(2.64804469 0.24995707 0.00000000)
		(2.66480447 0.24874179 0.00000000)
		(2.68156425 0.24586152 0.00000000)
		(2.69832402 0.24133553 0.00000000)
		(2.71508380 0.23519412 0.00000000)
		(2.73184358 0.22747840 0.00000000)
		(2.74860335 0.21824001 0.00000000)
		(2.76536313 0.20754079 0.00000000)
		(2.78212291 0.19545237 0.00000000)
		(2.79888268 0.18205565 0.00000000)
		(2.81564246 0.16744032 0.00000000)
		(2.83240223 0.15170419 0.00000000)
		(2.84916201 0.13495261 0.00000000)
		(2.86592179 0.11729769 0.00000000)
		(2.88268156 0.09885763 0.00000000)
		(2.89944134 0.07975584 0.00000000)
		(2.91620112 0.06012020 0.00000000)
		(2.93296089 0.04008213 0.00000000)
		(2.95166480 0.02460236 0.00000000)
		(2.97036872 0.01075203 0.00000000)
		(2.98907263 -0.00146884 0.00000000)
		(3.00777654 -0.01206026 0.00000000)
		(3.02648045 -0.02102224 0.00000000)
		(3.04518436 -0.02835476 0.00000000)
		(3.06388827 -0.03405783 0.00000000)
		(3.08259218 -0.03813146 0.00000000)
		(3.10129609 -0.04057563 0.00000000)
		(3.12000000 -0.04139036 0.00000000)
		(3.14000000 -0.04139036 0.00000000)
		(3.16000000 -0.04139036 0.00000000)
		(3.18000000 -0.04139036 0.00000000)
		(3.20000000 -0.04139036 0.00000000)
		(3.22000000 -0.04139036 0.00000000)
		(3.24000000 -0.04139036 0.00000000)
		(3.26000000 -0.04139036 0.00000000)
		(3.28000000 -0.04139036 0.00000000)
		(3.30000000 -0.04139036 0.00000000)
		(3.32000000 -0.04139036 0.00000000)
		(3.34000000 -0.04139036 0.00000000)
		(3.36000000 -0.04139036 0.00000000)
		(3.38000000 -0.04139036 0.00000000)
		(3.40000000 -0.04139036 0.00000000)
		(3.42000000 -0.04139036 0.00000000)
		(3.44000000 -0.04139036 0.00000000)
		(3.46000000 -0.04139036 0.00000000)
		(3.48000000 -0.04139036 0.00000000)
		(3.50000000 -0.04139036 0.00000000)
		(3.52000000 -0.04139036 0.00000000)
		(3.54000000 -0.04139036 0.00000000)
		(3.56000000 -0.04139036 0.00000000)
		(3.58000000 -0.04139036 0.00000000)
		(3.60000000 -0.04139036 0.00000000)
		(3.62000000 -0.04139036 0.00000000)
		(3.64000000 -0.04139036 0.00000000)
		(3.66000000 -0.04139036 0.00000000)
		(3.68000000 -0.04139036 0.00000000)
		(3.70000000 -0.04139036 0.00000000)
		(3.72000000 -0.04139036 0.00000000)
		(3.74000000 -0.04139036 0.00000000)
		(3.76000000 -0.04139036 0.00000000)
		(3.78000000 -0.04139036 0.00000000)
		(3.80000000 -0.04139036 0.00000000)
		(3.82000000 -0.04139036 0.00000000)
		(3.84000000 -0.04139036 0.00000000)
		(3.86000000 -0.04139036 0.00000000)
		(3.88000000 -0.04139036 0.00000000)
		(3.90000000 -0.04139036 0.00000000)
		(3.92000000 -0.04139036 0.00000000)
		(3.94000000 -0.04139036 0.00000000)
		(3.96000000 -0.04139036 0.00000000)
		(3.98000000 -0.04139036 0.00000000)
		(4.00000000 -0.04139036 0.00000000)
	)
	polyLine 4 5
	(
		(-1.00000000 0.23523069 0.10000000)
		(-0.98000000 0.23523069 0.10000000)
		(-0.96000000 0.23523069 0.10000000)
		(-0.94000000 0.23523069 0.10000000)
		(-0.92000000 0.23523069 0.10000000)
		(-0.90000000 0.23523069 0.10000000)
		(-0.88000000 0.23523069 0.10000000)
		(-0.86000000 0.23523069 0.10000000)
		(-0.84000000 0.23523069 0.10000000)
		(-0.82000000 0.23523069 0.10000000)
		(-0.80000000 0.23523069 0.10000000)
		(-0.78000000 0.23523069 0.10000000)
		(-0.76000000 0.23523069 0.10000000)
		(-0.74000000 0.23523069 0.10000000)
		(-0.72000000 0.23523069 0.10000000)
		(-0.70000000 0.23523069 0.10000000)
		(-0.68000000 0.23523069 0.10000000)
		(-0.66000000 0.23523069 0.10000000)
		(-0.64000000 0.23523069 0.10000000)
		(-0.62000000 0.23523069 0.10000000)
		(-0.60000000 0.23523069 0.10000000)
		(-0.58000000 0.23523069 0.10000000)
		(-0.56000000 0.23523069 0.10000000)
		(-0.54000000 0.23523069 0.10000000)
		(-0.52000000 0.23523069 0.10000000)
		(-0.50000000 0.23523069 0.10000000)
		(-0.48000000 0.23523069 0.10000000)
		(-0.46000000 0.23523069 0.10000000)
		(-0.44000000 0.23523069 0.10000000)
		(-0.42000000 0.23523069 0.10000000)
		(-0.40000000 0.23523069 0.10000000)
		(-0.38000000 0.23523069 0.10000000)
		(-0.36000000 0.23523069 0.10000000)
		(-0.34000000 0.23523069 0.10000000)
		(-0.32000000 0.23523069 0.10000000)
		(-0.30000000 0.23523069 0.10000000)
		(-0.28000000 0.23523069 0.10000000)
		(-0.26000000 0.23523069 0.10000000)
		(-0.24000000 0.23523069 0.10000000)
		(-0.22000000 0.23523069 0.10000000)
		(-0.20000000 0.23523069 0.10000000)
		(-0.18000000 0.23523069 0.10000000)
		(-0.16000000 0.23523069 0.10000000)
		(-0.14000000 0.23523069 0.10000000)
		(-0.12000000 0.23523069 0.10000000)
		(-0.10000000 0.23523069 0.10000000)
		(-0.08162011 0.23537330 0.10000000)
		(-0.06324022 0.23580115 0.10000000)
		(-0.04486034 0.23651424 0.10000000)
		(-0.02648045 0.23751256 0.10000000)
		(-0.00810056 0.23879611 0.10000000)
		(0.01027933 0.24036489 0.10000000)
		(0.02865922 0.24221891 0.10000000)
		(0.04703911 0.24435816 0.10000000)
		(0.06541899 0.24678265 0.10000000)
		(0.08379888 0.24949237 0.10000000)
		(0.10055866 0.24735567 0.10000000)
		(0.11731844 0.24356325 0.10000000)
		(0.13407821 0.23814051 0.10000000)
		(0.15083799 0.23112372 0.10000000)
		(0.16759777 0.22255988 0.10000000)
		(0.18435754 0.21250629 0.10000000)
		(0.20111732 0.20103025 0.10000000)
		(0.21787709 0.18820858 0.10000000)
		(0.23463687 0.17412711 0.10000000)
		(0.25139665 0.15888009 0.10000000)
		(0.26815642 0.14256958 0.10000000)
		(0.28491620 0.12530475 0.10000000)
		(0.30167598 0.10720118 0.10000000)
		(0.31843575 0.08838003 0.10000000)
		(0.33519553 0.06896730 0.10000000)
		(0.35195531 0.04909293 0.10000000)
		(0.36871508 0.02888994 0.10000000)
		(0.38547486 0.00849357 0.10000000)
		(0.40223464 -0.01195965 0.10000000)
		(0.41899441 -0.03233281 0.10000000)
		(0.43575419 -0.05248955 0.10000000)
		(0.45251397 -0.07229495 0.10000000)
		(0.46927374 -0.09161642 0.10000000)
		(0.48603352 -0.11032465 0.10000000)
		(0.50279330 -0.12829439 0.10000000)
		(0.51955307 -0.14540538 0.10000000)
		(0.53631285 -0.16154307 0.10000000)
		(0.55307263 -0.17659945 0.10000000)
		(0.56983240 -0.19047373 0.10000000)
		(0.58659218 -0.20307304 0.10000000)
		(0.60335196 -0.21431304 0.10000000)
		(0.62011173 -0.22411851 0.10000000)
		(0.63687151 -0.23242380 0.10000000)
		(0.65363128 -0.23917332 0.10000000)
		(0.67039106 -0.24432189 0.10000000)
		(0.68715084 -0.24783506 0.10000000)
		(0.70391061 -0.24968930 0.10000000)
		(0.72067039 -0.24987220 0.10000000)
		(0.73743017 -0.24838254 0.10000000)
		(0.75418994 -0.24523029 0.10000000)
		(0.77094972 -0.24043654 0.10000000)
		(0.78770950 -0.23403340 0.10000000)
		(0.80446927 -0.22606371 0.10000000)
		(0.82122905 -0.21658083 0.10000000)
		(0.83798883 -0.20564823 0.10000000)
		(0.85474860 -0.19333908 0.10000000)
		(0.87150838 -0.17973579 0.10000000)
		(0.88826816 -0.16492941 0.10000000)
		(0.90502793 -0.14901904 0.10000000)
		(0.92178771 -0.13211119 0.10000000)
		(0.93854749 -0.11431903 0.10000000)
		(0.95530726 -0.09576165 0.10000000)
		(0.97206704 -0.07656328 0.10000000)
		(0.98882682 -0.05685242 0.10000000)
		(1.00558659 -0.03676101 0.10000000)
		(1.02234637 -0.01642354 0.10000000)
		(1.03910615 0.00402388 0.10000000)
		(1.05586592 0.02444435 0.10000000)
		(1.07262570 0.04470121 0.10000000)
		(1.08938547 0.06465885 0.10000000)
		(1.10614525 0.08418368 0.10000000)
		(1.12290503 0.10314502 0.10000000)
		(1.13966480 0.12141593 0.10000000)
		(1.15642458 0.13887413 0.10000000)
		(1.17318436 0.15540276 0.10000000)
		(1.18994413 0.17089116 0.10000000)
		(1.20670391 0.18523568 0.10000000)
		(1.22346369 0.19834029 0.10000000)
		(1.24022346 0.21011728 0.10000000)
		(1.25698324 0.22048781 0.10000000)
		(1.27374302 0.22938247 0.10000000)
		(1.29050279 0.23674172 0.10000000)
		(1.30726257 0.24251630 0.10000000)
		(1.32402235 0.24666755 0.10000000)
		(1.34078212 0.24916770 0.10000000)
		(1.35754190 0.24999999 0.10000000)
		(1.37430168 0.24915887 0.10000000)
		(1.39106145 0.24664997 0.10000000)
		(1.40782123 0.24249007 0.10000000)
		(1.42458101 0.23670702 0.10000000)
		(1.44134078 0.22933953 0.10000000)
		(1.45810056 0.22043692 0.10000000)
		(1.47486034 0.21005878 0.10000000)
		(1.49162011 0.19827457 0.10000000)
		(1.50837989 0.18516318 0.10000000)
		(1.52513966 0.17081237 0.10000000)
		(1.54189944 0.15531819 0.10000000)
		(1.55865922 0.13878437 0.10000000)
		(1.57541899 0.12132157 0.10000000)
		(1.59217877 0.10304669 0.10000000)
		(1.60893855 0.08408204 0.10000000)
		(1.62569832 0.06455458 0.10000000)
		(1.64245810 0.04459501 0.10000000)
		(1.65921788 0.02433693 0.10000000)
		(1.67597765 0.00391596 0.10000000)
		(1.69273743 -0.01653123 0.10000000)
		(1.70949721 -0.03686777 0.10000000)
		(1.72625698 -0.05695752 0.10000000)
		(1.74301676 -0.07666602 0.10000000)
		(1.75977654 -0.09586135 0.10000000)
		(1.77653631 -0.11441501 0.10000000)
		(1.79329609 -0.13220281 0.10000000)
		(1.81005587 -0.14910569 0.10000000)
		(1.82681564 -0.16501050 0.10000000)
		(1.84357542 -0.17981080 0.10000000)
		(1.86033520 -0.19340749 0.10000000)
		(1.87709497 -0.20570958 0.10000000)
		(1.89385475 -0.21663472 0.10000000)
		(1.91061453 -0.22610978 0.10000000)
		(1.92737430 -0.23407133 0.10000000)
		(1.94413408 -0.24046609 0.10000000)
		(1.96089385 -0.24525125 0.10000000)
		(1.97765363 -0.24839477 0.10000000)
		(1.99441341 -0.24987563 0.10000000)
		(2.01117318 -0.24968389 0.10000000)
		(2.02793296 -0.24782086 0.10000000)
		(2.04469274 -0.24429900 0.10000000)
		(2.06145251 -0.23914188 0.10000000)
		(2.07821229 -0.23238402 0.10000000)
		(2.09497207 -0.22407066 0.10000000)
		(2.11173184 -0.21425745 0.10000000)
		(2.12849162 -0.20301007 0.10000000)
		(2.14525140 -0.19040380 0.10000000)
		(2.16201117 -0.17652304 0.10000000)
		(2.17877095 -0.16146068 0.10000000)
		(2.19553073 -0.14531757 0.10000000)
		(2.21229050 -0.12820174 0.10000000)
		(2.22905028 -0.11022778 0.10000000)
		(2.24581006 -0.09151599 0.10000000)
		(2.26256983 -0.07219162 0.10000000)
		(2.27932961 -0.05238402 0.10000000)
		(2.29608939 -0.03222578 0.10000000)
		(2.31284916 -0.01185184 0.10000000)
		(2.32960894 0.00860144 0.10000000)
		(2.34636872 0.02899715 0.10000000)
		(2.36312849 0.04919875 0.10000000)
		(2.37988827 0.06907104 0.10000000)
		(2.39664804 0.08848099 0.10000000)
		(2.41340782 0.10729867 0.10000000)
		(2.43016760 0.12539814 0.10000000)
		(2.44692737 0.14265823 0.10000000)
		(2.46368715 0.15896341 0.10000000)
		(2.48044693 0.17420454 0.10000000)
		(2.49720670 0.18827961 0.10000000)
		(2.51396648 0.20109439 0.10000000)
		(2.53072626 0.21256312 0.10000000)
		(2.54748603 0.22260902 0.10000000)
		(2.56424581 0.23116485 0.10000000)
		(2.58100559 0.23817333 0.10000000)
		(2.59776536 0.24358757 0.10000000)
		(2.61452514 0.24737130 0.10000000)
		(2.63128492 0.24949922 0.10000000)
		(2.64804469 0.24995707 0.10000000)
		(2.66480447 0.24874179 0.10000000)
		(2.68156425 0.24586152 0.10000000)
		(2.69832402 0.24133553 0.10000000)
		(2.71508380 0.23519412 0.10000000)
		(2.73184358 0.22747840 0.10000000)
		(2.74860335 0.21824001 0.10000000)
		(2.76536313 0.20754079 0.10000000)
		(2.78212291 0.19545237 0.10000000)
		(2.79888268 0.18205565 0.10000000)
		(2.81564246 0.16744032 0.10000000)
		(2.83240223 0.15170419 0.10000000)
		(2.84916201 0.13495261 0.10000000)
		(2.86592179 0.11729769 0.10000000)
		(2.88268156 0.09885763 0.10000000)
		(2.89944134 0.07975584 0.10000000)
		(2.91620112 0.06012020 0.10000000)
		(2.93296089 0.04008213 0.10000000)
		(2.95166480 0.02460236 0.10000000)
		(2.97036872 0.01075203 0.10000000)
		(2.98907263 -0.00146884 0.10000000)
		(3.00777654 -0.01206026 0.10000000)
		(3.02648045 -0.02102224 0.10000000)
		(3.04518436 -0.02835476 0.10000000)
		(3.06388827 -0.03405783 0.10000000)
		(3.08259218 -0.03813146 0.10000000)
		(3.10129609 -0.04057563 0.10000000)
		(3.12000000 -0.04139036 0.10000000)
		(3.14000000 -0.04139036 0.10000000)
		(3.16000000 -0.04139036 0.10000000)
		(3.18000000 -0.04139036 0.10000000)
		(3.20000000 -0.04139036 0.10000000)
		(3.22000000 -0.04139036 0.10000000)
		(3.24000000 -0.04139036 0.10000000)
		(3.26000000 -0.04139036 0.10000000)
		(3.28000000 -0.04139036 0.10000000)
		(3.30000000 -0.04139036 0.10000000)
		(3.32000000 -0.04139036 0.10000000)
		(3.34000000 -0.04139036 0.10000000)
		(3.36000000 -0.04139036 0.10000000)
		(3.38000000 -0.04139036 0.10000000)
		(3.40000000 -0.04139036 0.10000000)
		(3.42000000 -0.04139036 0.10000000)
		(3.44000000 -0.04139036 0.10000000)
		(3.46000000 -0.04139036 0.10000000)
		(3.48000000 -0.04139036 0.10000000)
		(3.50000000 -0.04139036 0.10000000)
		(3.52000000 -0.04139036 0.10000000)
		(3.54000000 -0.04139036 0.10000000)
		(3.56000000 -0.04139036 0.10000000)
		(3.58000000 -0.04139036 0.10000000)
		(3.60000000 -0.04139036 0.10000000)
		(3.62000000 -0.04139036 0.10000000)
		(3.64000000 -0.04139036 0.10000000)
		(3.66000000 -0.04139036 0.10000000)
		(3.68000000 -0.04139036 0.10000000)
		(3.70000000 -0.04139036 0.10000000)
		(3.72000000 -0.04139036 0.10000000)
		(3.74000000 -0.04139036 0.10000000)
		(3.76000000 -0.04139036 0.10000000)
		(3.78000000 -0.04139036 0.10000000)
		(3.80000000 -0.04139036 0.10000000)
		(3.82000000 -0.04139036 0.10000000)
		(3.84000000 -0.04139036 0.10000000)
		(3.86000000 -0.04139036 0.10000000)
		(3.88000000 -0.04139036 0.10000000)
		(3.90000000 -0.04139036 0.10000000)
		(3.92000000 -0.04139036 0.10000000)
		(3.94000000 -0.04139036 0.10000000)
		(3.96000000 -0.04139036 0.10000000)
		(3.98000000 -0.04139036 0.10000000)
		(4.00000000 -0.04139036 0.10000000)
	)
	polyLine 3 2
	(
		(-1.00000000 0.73523069 0.00000000)
		(-0.98000000 0.73804551 0.00000000)
		(-0.96000000 0.74086034 0.00000000)
		(-0.94000000 0.74367517 0.00000000)
		(-0.92000000 0.74648999 0.00000000)
		(-0.90000000 0.74930482 0.00000000)
		(-0.88000000 0.75211964 0.00000000)
		(-0.86000000 0.75493447 0.00000000)
		(-0.84000000 0.75774929 0.00000000)
		(-0.82000000 0.76056412 0.00000000)
		(-0.80000000 0.76337895 0.00000000)
		(-0.78000000 0.76619377 0.00000000)
		(-0.76000000 0.76900860 0.00000000)
		(-0.74000000 0.77182342 0.00000000)
		(-0.72000000 0.77463825 0.00000000)
		(-0.70000000 0.77745308 0.00000000)
		(-0.68000000 0.78026790 0.00000000)
		(-0.66000000 0.78308273 0.00000000)
		(-0.64000000 0.78589755 0.00000000)
		(-0.62000000 0.78871238 0.00000000)
		(-0.60000000 0.79152720 0.00000000)
		(-0.58000000 0.79434203 0.00000000)
		(-0.56000000 0.79715686 0.00000000)
		(-0.54000000 0.79997168 0.00000000)
		(-0.52000000 0.80278651 0.00000000)
		(-0.50000000 0.80560133 0.00000000)
		(-0.48000000 0.80841616 0.00000000)
		(-0.46000000 0.81123099 0.00000000)
		(-0.44000000 0.81404581 0.00000000)
		(-0.42000000 0.81686064 0.00000000)
		(-0.40000000 0.81967546 0.00000000)
		(-0.38000000 0.82249029 0.00000000)
		(-0.36000000 0.82530512 0.00000000)
		(-0.34000000 0.82811994 0.00000000)
		(-0.32000000 0.83093477 0.00000000)
		(-0.30000000 0.83374959 0.00000000)
		(-0.28000000 0.83656442 0.00000000)
		(-0.26000000 0.83937924 0.00000000)
		(-0.24000000 0.84219407 0.00000000)
		(-0.22000000 0.84500890 0.00000000)
		(-0.20000000 0.84782372 0.00000000)
		(-0.18000000 0.85063855 0.00000000)
		(-0.16000000 0.85345337 0.00000000)
		(-0.14000000 0.85626820 0.00000000)
		(-0.12000000 0.85908303 0.00000000)
		(-0.10000000 0.86189785 0.00000000)
		(-0.08162011 0.86371354 0.00000000)
		(-0.06324022 0.86587870 0.00000000)
		(-0.04486034 0.86839334 0.00000000)
		(-0.02648045 0.87125745 0.00000000)
		(-0.00810056 0.87447104 0.00000000)
		(0.01027933 0.87803410 0.00000000)
		(0.02865922 0.88194664 0.00000000)
		(0.04703911 0.88620866 0.00000000)
		(0.06541899 0.89082014 0.00000000)
		(0.08379888 0.89578111 0.00000000)
		(0.10055866 0.89239157 0.00000000)
		(0.11731844 0.88637548 0.00000000)
		(0.13407821 0.87777313 0.00000000)
		(0.15083799 0.86664209 0.00000000)
		(0.16759777 0.85305687 0.00000000)
		(0.18435754 0.83710840 0.00000000)
		(0.20111732 0.81890344 0.00000000)
		(0.21787709 0.79856385 0.00000000)
		(0.23463687 0.77622577 0.00000000)
		(0.25139665 0.75203872 0.00000000)
		(0.26815642 0.72616461 0.00000000)
		(0.28491620 0.69877663 0.00000000)
		(0.30167598 0.67005811 0.00000000)
		(0.31843575 0.64020127 0.00000000)
		(0.33519553 0.60940597 0.00000000)
		(0.35195531 0.57787834 0.00000000)
		(0.36871508 0.54582943 0.00000000)
		(0.38547486 0.51347374 0.00000000)
		(0.40223464 0.48102787 0.00000000)
		(0.41899441 0.44870898 0.00000000)
		(0.43575419 0.41673343 0.00000000)
		(0.45251397 0.38531523 0.00000000)
		(0.46927374 0.35466470 0.00000000)
		(0.48603352 0.32498699 0.00000000)
		(0.50279330 0.29648076 0.00000000)
		(0.51955307 0.26933682 0.00000000)
		(0.53631285 0.24373686 0.00000000)
		(0.55307263 0.21985225 0.00000000)
		(0.56983240 0.19784285 0.00000000)
		(0.58659218 0.17785599 0.00000000)
		(0.60335196 0.16002546 0.00000000)
		(0.62011173 0.14447060 0.00000000)
		(0.63687151 0.13129554 0.00000000)
		(0.65363128 0.12058847 0.00000000)
		(0.67039106 0.11242105 0.00000000)
		(0.68715084 0.10684796 0.00000000)
		(0.70391061 0.10390649 0.00000000)
		(0.72067039 0.10361635 0.00000000)
		(0.73743017 0.10597947 0.00000000)
		(0.75418994 0.11098003 0.00000000)
		(0.77094972 0.11858456 0.00000000)
		(0.78770950 0.12874216 0.00000000)
		(0.80446927 0.14138483 0.00000000)
		(0.82122905 0.15642796 0.00000000)
		(0.83798883 0.17377085 0.00000000)
		(0.85474860 0.19329741 0.00000000)
		(0.87150838 0.21487693 0.00000000)
		(0.88826816 0.23836497 0.00000000)
		(0.90502793 0.26360431 0.00000000)
		(0.92178771 0.29042600 0.00000000)
		(0.93854749 0.31865052 0.00000000)
		(0.95530726 0.34808893 0.00000000)
		(0.97206704 0.37854418 0.00000000)
		(0.98882682 0.40981241 0.00000000)
		(1.00558659 0.44168433 0.00000000)
		(1.02234637 0.47394660 0.00000000)
		(1.03910615 0.50638326 0.00000000)
		(1.05586592 0.53877719 0.00000000)
		(1.07262570 0.57091156 0.00000000)
		(1.08938547 0.60257127 0.00000000)
		(1.10614525 0.63354441 0.00000000)
		(1.12290503 0.66362364 0.00000000)
		(1.13966480 0.69260763 0.00000000)
		(1.15642458 0.72030236 0.00000000)
		(1.17318436 0.74652247 0.00000000)
		(1.18994413 0.77109244 0.00000000)
		(1.20670391 0.79384780 0.00000000)
		(1.22346369 0.81463624 0.00000000)
		(1.24022346 0.83331861 0.00000000)
		(1.25698324 0.84976986 0.00000000)
		(1.27374302 0.86387986 0.00000000)
		(1.29050279 0.87555418 0.00000000)
		(1.30726257 0.88471465 0.00000000)
		(1.32402235 0.89129998 0.00000000)
		(1.34078212 0.89526607 0.00000000)
		(1.35754190 0.89658638 0.00000000)
		(1.37430168 0.89525207 0.00000000)
		(1.39106145 0.89127208 0.00000000)
		(1.40782123 0.88467304 0.00000000)
		(1.42458101 0.87549912 0.00000000)
		(1.44134078 0.86381174 0.00000000)
		(1.45810056 0.84968912 0.00000000)
		(1.47486034 0.83322580 0.00000000)
		(1.49162011 0.81453198 0.00000000)
		(1.50837989 0.79373278 0.00000000)
		(1.52513966 0.77096744 0.00000000)
		(1.54189944 0.74638832 0.00000000)
		(1.55865922 0.72015997 0.00000000)
		(1.57541899 0.69245794 0.00000000)
		(1.59217877 0.66346765 0.00000000)
		(1.60893855 0.63338317 0.00000000)
		(1.62569832 0.60240587 0.00000000)
		(1.64245810 0.57074309 0.00000000)
		(1.65921788 0.53860679 0.00000000)
		(1.67597765 0.50621206 0.00000000)
		(1.69273743 0.47377575 0.00000000)
		(1.70949721 0.44151498 0.00000000)
		(1.72625698 0.40964568 0.00000000)
		(1.74301676 0.37838119 0.00000000)
		(1.75977654 0.34793078 0.00000000)
		(1.77653631 0.31849826 0.00000000)
		(1.79329609 0.29028066 0.00000000)
		(1.81005587 0.26346685 0.00000000)
		(1.82681564 0.23823632 0.00000000)
		(1.84357542 0.21475794 0.00000000)
		(1.86033520 0.19318889 0.00000000)
		(1.87709497 0.17367352 0.00000000)
		(1.89385475 0.15634247 0.00000000)
		(1.91061453 0.14131176 0.00000000)
		(1.92737430 0.12868198 0.00000000)
		(1.94413408 0.11853769 0.00000000)
		(1.96089385 0.11094678 0.00000000)
		(1.97765363 0.10596006 0.00000000)
		(1.99441341 0.10361091 0.00000000)
		(2.01117318 0.10391506 0.00000000)
		(2.02793296 0.10687048 0.00000000)
		(2.04469274 0.11245737 0.00000000)
		(2.06145251 0.12063835 0.00000000)
		(2.07821229 0.13135864 0.00000000)
		(2.09497207 0.14454650 0.00000000)
		(2.11173184 0.16011365 0.00000000)
		(2.12849162 0.17795589 0.00000000)
		(2.14525140 0.19795378 0.00000000)
		(2.16201117 0.21997347 0.00000000)
		(2.17877095 0.24386756 0.00000000)
		(2.19553073 0.26947612 0.00000000)
		(2.21229050 0.29662773 0.00000000)
		(2.22905028 0.32514065 0.00000000)
		(2.24581006 0.35482402 0.00000000)
		(2.26256983 0.38547915 0.00000000)
		(2.27932961 0.41690084 0.00000000)
		(2.29608939 0.44887877 0.00000000)
		(2.31284916 0.48119889 0.00000000)
		(2.32960894 0.51364486 0.00000000)
		(2.34636872 0.54599949 0.00000000)
		(2.36312849 0.57804622 0.00000000)
		(2.37988827 0.60957054 0.00000000)
		(2.39664804 0.64036142 0.00000000)
		(2.41340782 0.67021277 0.00000000)
		(2.43016760 0.69892478 0.00000000)
		(2.44692737 0.72630524 0.00000000)
		(2.46368715 0.75217090 0.00000000)
		(2.48044693 0.77634860 0.00000000)
		(2.49720670 0.79867652 0.00000000)
		(2.51396648 0.81900520 0.00000000)
		(2.53072626 0.83719856 0.00000000)