/*--------------------------------*- C++ -*----------------------------------*\\
/*--------------------------------*- C++ -*----------------------------------*\\
| =========                 |                                                 |
| \\\\      /  F ield         | OpenFOAM: The Open Source CFD Toolbox           |
|  \\\\    /   O peration     | Version:  v2012                                 |
|   \\\\  /    A nd           | Website:  www.openfoam.com                      |
|    \\\\/     M anipulation  |                                                 |
\\*---------------------------------------------------------------------------*/
FoamFile
{
    version     2.0;
    format      ascii;
    class       dictionary;
    object      blockMeshDict;
}
// * * * * * * * * * * * * * * * * * * * * * * * * * * * * * * * * * * * * * //

scale   0.01;

xmin -1;
xmax 5;
ymin 0;
ymax 0.5;
zmin 0;
zmax 0.1;

vertices
(
    (-1.00000000 -0.18797126 0.00000000)
    (4.00000000 -0.01950839 0.00000000)
    (4.00000000 0.48049161 0.00000000)
    (-1.00000000 0.31202874 0.00000000)
    (-1.00000000 -0.18797126 0.10000000)
    (4.00000000 -0.01950839 0.10000000)
    (4.00000000 0.48049161 0.10000000)
    (-1.00000000 0.31202874 0.10000000)
);

blocks
(
    hex (0 1 2 3 4 5 6 7) (200 20 1) simpleGrading (1 1 1)
);

edges
(
	polyLine 0 1
	(
		(-1.00000000 -0.18797126 0.00000000)
		(-0.98000000 -0.18797126 0.00000000)
		(-0.96000000 -0.18797126 0.00000000)
		(-0.94000000 -0.18797126 0.00000000)
		(-0.92000000 -0.18797126 0.00000000)
		(-0.90000000 -0.18797126 0.00000000)
		(-0.88000000 -0.18797126 0.00000000)
		(-0.86000000 -0.18797126 0.00000000)
		(-0.84000000 -0.18797126 0.00000000)
		(-0.82000000 -0.18797126 0.00000000)
		(-0.80000000 -0.18797126 0.00000000)
		(-0.78000000 -0.18797126 0.00000000)
		(-0.76000000 -0.18797126 0.00000000)
		(-0.74000000 -0.18797126 0.00000000)
		(-0.72000000 -0.18797126 0.00000000)
		(-0.70000000 -0.18797126 0.00000000)
		(-0.68000000 -0.18797126 0.00000000)
		(-0.66000000 -0.18797126 0.00000000)
		(-0.64000000 -0.18797126 0.00000000)
		(-0.62000000 -0.18797126 0.00000000)
		(-0.60000000 -0.18797126 0.00000000)
		(-0.58000000 -0.18797126 0.00000000)
		(-0.56000000 -0.18797126 0.00000000)
		(-0.54000000 -0.18797126 0.00000000)
		(-0.52000000 -0.18797126 0.00000000)
		(-0.50000000 -0.18797126 0.00000000)
		(-0.48000000 -0.18797126 0.00000000)
		(-0.46000000 -0.18797126 0.00000000)
		(-0.44000000 -0.18797126 0.00000000)
		(-0.42000000 -0.18797126 0.00000000)
		(-0.40000000 -0.18797126 0.00000000)
		(-0.38000000 -0.18797126 0.00000000)
		(-0.36000000 -0.18797126 0.00000000)
		(-0.34000000 -0.18797126 0.00000000)
		(-0.32000000 -0.18797126 0.00000000)
		(-0.30000000 -0.18797126 0.00000000)
		(-0.28000000 -0.18797126 0.00000000)
		(-0.26000000 -0.18797126 0.00000000)
		(-0.24000000 -0.18797126 0.00000000)
		(-0.22000000 -0.18797126 0.00000000)
		(-0.20000000 -0.18797126 0.00000000)
		(-0.18000000 -0.18797126 0.00000000)
		(-0.16000000 -0.18797126 0.00000000)
		(-0.14000000 -0.18797126 0.00000000)
		(-0.12000000 -0.18797126 0.00000000)
		(-0.10000000 -0.18797126 0.00000000)
		(-0.08162011 -0.18703321 0.00000000)
		(-0.06324022 -0.18421908 0.00000000)
		(-0.04486034 -0.17952886 0.00000000)
		(-0.02648045 -0.17296255 0.00000000)
		(-0.00810056 -0.16452016 0.00000000)
		(0.01027933 -0.15420167 0.00000000)
		(0.02865922 -0.14200710 0.00000000)
		(0.04703911 -0.12793644 0.00000000)
		(0.06541899 -0.11198969 0.00000000)
		(0.08379888 -0.09416686 0.00000000)
		(0.10055866 -0.07226673 0.00000000)
		(0.11731844 -0.04974278 0.00000000)
		(0.13407821 -0.02678942 0.00000000)
		(0.15083799 -0.00360481 0.00000000)
		(0.16759777 0.01961092 0.00000000)
		(0.18435754 0.04265736 0.00000000)
		(0.20111732 0.06533557 0.00000000)
		(0.21787709 0.08744977 0.00000000)
		(0.23463687 0.10880908 0.00000000)
		(0.25139665 0.12922910 0.00000000)
		(0.26815642 0.14853356 0.00000000)
		(0.28491620 0.16655583 0.00000000)
		(0.30167598 0.18314032 0.00000000)
		(0.31843575 0.19814388 0.00000000)
		(0.33519553 0.21143698 0.00000000)
		(0.35195531 0.22290487 0.00000000)
		(0.36871508 0.23244856 0.00000000)
		(0.38547486 0.23998567 0.00000000)
		(0.40223464 0.24545113 0.00000000)
		(0.41899441 0.24879775 0.00000000)
		(0.43575419 0.24999666 0.00000000)
		(0.45251397 0.24903750 0.00000000)
		(0.46927374 0.24592856 0.00000000)
		(0.48603352 0.24069666 0.00000000)
		(0.50279330 0.23338697 0.00000000)
		(0.51955307 0.22406260 0.00000000)
		(0.53631285 0.21280404 0.00000000)
		(0.55307263 0.19970846 0.00000000)
		(0.56983240 0.18488893 0.00000000)
		(0.58659218 0.16847336 0.00000000)
		(0.60335196 0.15060346 0.00000000)
		(0.62011173 0.13143350 0.00000000)
		(0.63687151 0.11112895 0.00000000)
		(0.65363128 0.08986510 0.00000000)
		(0.67039106 0.06782549 0.00000000)
		(0.68715084 0.04520039 0.00000000)
		(0.70391061 0.02218510 0.00000000)
		(0.72067039 -0.00102170 0.00000000)
		(0.73743017 -0.02421968 0.00000000)
		(0.75418994 -0.04720858 0.00000000)
		(0.77094972 -0.06978997 0.00000000)
		(0.78770950 -0.09176890 0.00000000)
		(0.80446927 -0.11295564 0.00000000)
		(0.82122905 -0.13316731 0.00000000)
		(0.83798883 -0.15222942 0.00000000)
		(0.85474860 -0.16997744 0.00000000)
		(0.87150838 -0.18625814 0.00000000)
		(0.88826816 -0.20093099 0.00000000)
		(0.90502793 -0.21386932 0.00000000)
		(0.92178771 -0.22496145 0.00000000)
		(0.93854749 -0.23411163 0.00000000)
		(0.95530726 -0.24124087 0.00000000)
		(0.97206704 -0.24628762 0.00000000)
		(0.98882682 -0.24920832 0.00000000)
		(1.00558659 -0.24997776 0.00000000)
		(1.02234637 -0.24858929 0.00000000)
		(1.03910615 -0.24505490 0.00000000)
		(1.05586592 -0.23940511 0.00000000)
		(1.07262570 -0.23168867 0.00000000)
		(1.08938547 -0.22197221 0.00000000)
		(1.10614525 -0.21033960 0.00000000)
		(1.12290503 -0.19689126 0.00000000)
		(1.13966480 -0.18174328 0.00000000)
		(1.15642458 -0.16502641 0.00000000)
		(1.17318436 -0.14688498 0.00000000)
		(1.18994413 -0.12747558 0.00000000)
		(1.20670391 -0.10696576 0.00000000)
		(1.22346369 -0.08553256 0.00000000)
		(1.24022346 -0.06336102 0.00000000)
		(1.25698324 -0.04064252 0.00000000)
		(1.27374302 -0.01757318 0.00000000)
		(1.29050279 0.00564786 0.00000000)
		(1.30726257 0.02882014 0.00000000)
		(1.32402235 0.05174364 0.00000000)
		(1.34078212 0.07422046 0.00000000)
		(1.35754190 0.09605659 0.00000000)
		(1.37430168 0.11706352 0.00000000)
		(1.39106145 0.13705991 0.00000000)
		(1.40782123 0.15587315 0.00000000)
		(1.42458101 0.17334083 0.00000000)
		(1.44134078 0.18931216 0.00000000)
		(1.45810056 0.20364928 0.00000000)
		(1.47486034 0.21622842 0.00000000)
		(1.49162011 0.22694099 0.00000000)
		(1.50837989 0.23569452 0.00000000)
		(1.52513966 0.24241344 0.00000000)
		(1.54189944 0.24703976 0.00000000)
		(1.55865922 0.24953353 0.00000000)
		(1.57541899 0.24987323 0.00000000)
		(1.59217877 0.24805593 0.00000000)
		(1.60893855 0.24409732 0.00000000)
		(1.62569832 0.23803156 0.00000000)
		(1.64245810 0.22991102 0.00000000)
		(1.65921788 0.21980580 0.00000000)
		(1.67597765 0.20780314 0.00000000)
		(1.69273743 0.19400663 0.00000000)
		(1.70949721 0.17853538 0.00000000)
		(1.72625698 0.16152295 0.00000000)
		(1.74301676 0.14311619 0.00000000)
		(1.75977654 0.12347399 0.00000000)
		(1.77653631 0.10276592 0.00000000)
		(1.79329609 0.08117074 0.00000000)
		(1.81005587 0.05887485 0.00000000)
		(1.82681564 0.03607074 0.00000000)
		(1.84357542 0.01295525 0.00000000)
		(1.86033520 -0.01027208 0.00000000)
		(1.87709497 -0.03341073 0.00000000)
		(1.89385475 -0.05626097 0.00000000)
		(1.91061453 -0.07862554 0.00000000)
		(1.92737430 -0.10031139 0.00000000)
		(1.94413408 -0.12113131 0.00000000)
		(1.96089385 -0.14090557 0.00000000)
		(1.97765363 -0.15946349 0.00000000)
		(1.99441341 -0.17664485 0.00000000)
		(2.01117318 -0.19230135 0.00000000)
		(2.02793296 -0.20629783 0.00000000)
		(2.04469274 -0.21851347 0.00000000)
		(2.06145251 -0.22884281 0.00000000)
		(2.07821229 -0.23719669 0.00000000)
		(2.09497207 -0.24350300 0.00000000)
		(2.11173184 -0.24770729 0.00000000)
		(2.12849162 -0.24977329 0.00000000)
		(2.14525140 -0.24968314 0.00000000)
		(2.16201117 -0.24743763 0.00000000)
		(2.17877095 -0.24305614 0.00000000)
		(2.19553073 -0.23657650 0.00000000)
		(2.21229050 -0.22805463 0.00000000)
		(2.22905028 -0.21756411 0.00000000)
		(2.24581006 -0.20519550 0.00000000)
		(2.26256983 -0.19105555 0.00000000)
		(2.27932961 -0.17526634 0.00000000)
		(2.29608939 -0.15796417 0.00000000)
		(2.31284916 -0.13929838 0.00000000)
		(2.32960894 -0.11943012 0.00000000)
		(2.34636872 -0.09853089 0.00000000)
		(2.36312849 -0.07678111 0.00000000)
		(2.37988827 -0.05436852 0.00000000)
		(2.39664804 -0.03148660 0.00000000)
		(2.41340782 -0.00833287 0.00000000)
		(2.43016760 0.01489278 0.00000000)
		(2.44692737 0.03798988 0.00000000)
		(2.46368715 0.06075903 0.00000000)
		(2.48044693 0.08300369 0.00000000)
		(2.49720670 0.10453183 0.00000000)
		(2.51396648 0.12515761 0.00000000)
		(2.53072626 0.14470298 0.00000000)
		(2.54748603 0.16299922 0.00000000)
		(2.56424581 0.17988838 0.00000000)
		(2.58100559 0.19522468 0.00000000)
		(2.59776536 0.20887572 0.00000000)
		(2.61452514 0.22072367 0.00000000)
		(2.63128492 0.23066625 0.00000000)
		(2.64804469 0.23861762 0.00000000)
		(2.66480447 0.24450916 0.00000000)
		(2.68156425 0.24828999 0.00000000)
		(2.69832402 0.24992750 0.00000000)
		(2.71508380 0.24940753 0.00000000)
		(2.73184358 0.24673458 0.00000000)
		(2.74860335 0.24193171 0.00000000)
		(2.76536313 0.23504041 0.00000000)
		(2.78212291 0.22612014 0.00000000)
		(2.79888268 0.21524791 0.00000000)
		(2.81564246 0.20251758 0.00000000)
		(2.83240223 0.18803905 0.00000000)
		(2.84916201 0.17193728 0.00000000)
		(2.86592179 0.15435129 0.00000000)
		(2.88268156 0.13543287 0.00000000)
		(2.89944134 0.11534535 0.00000000)
		(2.91620112 0.09426212 0.00000000)
		(2.93296089 0.07236518 0.00000000)
		(2.95166480 0.05490921 0.00000000)
		(2.97036872 0.03929070 0.00000000)
		(2.98907263 0.02550966 0.00000000)
		(3.00777654 0.01356610 0.00000000)
		(3.02648045 0.00346000 0.00000000)
		(3.04518436 -0.00480862 0.00000000)
		(3.06388827 -0.01123977 0.00000000)
		(3.08259218 -0.01583345 0.00000000)
		(3.10129609 -0.01858965 0.00000000)
		(3.12000000 -0.01950839 0.00000000)
		(3.14000000 -0.01950839 0.00000000)
		(3.16000000 -0.01950839 0.00000000)
		(3.18000000 -0.01950839 0.00000000)
		(3.20000000 -0.01950839 0.00000000)
		(3.22000000 -0.01950839 0.00000000)
		(3.24000000 -0.01950839 0.00000000)
		(3.26000000 -0.01950839 0.00000000)
		(3.28000000 -0.01950839 0.00000000)
		(3.30000000 -0.01950839 0.00000000)
		(3.32000000 -0.01950839 0.00000000)
		(3.34000000 -0.01950839 0.00000000)
		(3.36000000 -0.01950839 0.00000000)
		(3.38000000 -0.01950839 0.00000000)
		(3.40000000 -0.01950839 0.00000000)
		(3.42000000 -0.01950839 0.00000000)
		(3.44000000 -0.01950839 0.00000000)
		(3.46000000 -0.01950839 0.00000000)
		(3.48000000 -0.01950839 0.00000000)
		(3.50000000 -0.01950839 0.00000000)
		(3.52000000 -0.01950839 0.00000000)
		(3.54000000 -0.01950839 0.00000000)
		(3.56000000 -0.01950839 0.00000000)
		(3.58000000 -0.01950839 0.00000000)
		(3.60000000 -0.01950839 0.00000000)
		(3.62000000 -0.01950839 0.00000000)
		(3.64000000 -0.01950839 0.00000000)
		(3.66000000 -0.01950839 0.00000000)
		(3.68000000 -0.01950839 0.00000000)
		(3.70000000 -0.01950839 0.00000000)
		(3.72000000 -0.01950839 0.00000000)
		(3.74000000 -0.01950839 0.00000000)
		(3.76000000 -0.01950839 0.00000000)
		(3.78000000 -0.01950839 0.00000000)
		(3.80000000 -0.01950839 0.00000000)
		(3.82000000 -0.01950839 0.00000000)
		(3.84000000 -0.01950839 0.00000000)
		(3.86000000 -0.01950839 0.00000000)
		(3.88000000 -0.01950839 0.00000000)
		(3.90000000 -0.01950839 0.00000000)
		(3.92000000 -0.01950839 0.00000000)
		(3.94000000 -0.01950839 0.00000000)
		(3.96000000 -0.01950839 0.00000000)
		(3.98000000 -0.01950839 0.00000000)
		(4.00000000 -0.01950839 0.00000000)
	)
	polyLine 4 5
	(
		(-1.00000000 -0.18797126 0.10000000)
		(-0.98000000 -0.18797126 0.10000000)
		(-0.96000000 -0.18797126 0.10000000)
		(-0.94000000 -0.18797126 0.10000000)
		(-0.92000000 -0.18797126 0.10000000)
		(-0.90000000 -0.18797126 0.10000000)
		(-0.88000000 -0.18797126 0.10000000)
		(-0.86000000 -0.18797126 0.10000000)
		(-0.84000000 -0.18797126 0.10000000)
		(-0.82000000 -0.18797126 0.10000000)
		(-0.80000000 -0.18797126 0.10000000)
		(-0.78000000 -0.18797126 0.10000000)
		(-0.76000000 -0.18797126 0.10000000)
		(-0.74000000 -0.18797126 0.10000000)
		(-0.72000000 -0.18797126 0.10000000)
		(-0.70000000 -0.18797126 0.10000000)
		(-0.68000000 -0.18797126 0.10000000)
		(-0.66000000 -0.18797126 0.10000000)
		(-0.64000000 -0.18797126 0.10000000)
		(-0.62000000 -0.18797126 0.10000000)
		(-0.60000000 -0.18797126 0.10000000)
		(-0.58000000 -0.18797126 0.10000000)
		(-0.56000000 -0.18797126 0.10000000)
		(-0.54000000 -0.18797126 0.10000000)
		(-0.52000000 -0.18797126 0.10000000)
		(-0.50000000 -0.18797126 0.10000000)
		(-0.48000000 -0.18797126 0.10000000)
		(-0.46000000 -0.18797126 0.10000000)
		(-0.44000000 -0.18797126 0.10000000)
		(-0.42000000 -0.18797126 0.10000000)
		(-0.40000000 -0.18797126 0.10000000)
		(-0.38000000 -0.18797126 0.10000000)
		(-0.36000000 -0.18797126 0.10000000)
		(-0.34000000 -0.18797126 0.10000000)
		(-0.32000000 -0.18797126 0.10000000)
		(-0.30000000 -0.18797126 0.10000000)
		(-0.28000000 -0.18797126 0.10000000)
		(-0.26000000 -0.18797126 0.10000000)
		(-0.24000000 -0.18797126 0.10000000)
		(-0.22000000 -0.18797126 0.10000000)
		(-0.20000000 -0.18797126 0.10000000)
		(-0.18000000 -0.18797126 0.10000000)
		(-0.16000000 -0.18797126 0.10000000)
		(-0.14000000 -0.18797126 0.10000000)
		(-0.12000000 -0.18797126 0.10000000)
		(-0.10000000 -0.18797126 0.10000000)
		(-0.08162011 -0.18703321 0.10000000)
		(-0.06324022 -0.18421908 0.10000000)
		(-0.04486034 -0.17952886 0.10000000)
		(-0.02648045 -0.17296255 0.10000000)
		(-0.00810056 -0.16452016 0.10000000)
		(0.01027933 -0.15420167 0.10000000)
		(0.02865922 -0.14200710 0.10000000)
		(0.04703911 -0.12793644 0.10000000)
		(0.06541899 -0.11198969 0.10000000)
		(0.08379888 -0.09416686 0.10000000)
		(0.10055866 -0.07226673 0.10000000)
		(0.11731844 -0.04974278 0.10000000)
		(0.13407821 -0.02678942 0.10000000)
		(0.15083799 -0.00360481 0.10000000)
		(0.16759777 0.01961092 0.10000000)
		(0.18435754 0.04265736 0.10000000)
		(0.20111732 0.06533557 0.10000000)
		(0.21787709 0.08744977 0.10000000)
		(0.23463687 0.10880908 0.10000000)
		(0.25139665 0.12922910 0.10000000)
		(0.26815642 0.14853356 0.10000000)
		(0.28491620 0.16655583 0.10000000)
		(0.30167598 0.18314032 0.10000000)
		(0.31843575 0.19814388 0.10000000)
		(0.33519553 0.21143698 0.10000000)
		(0.35195531 0.22290487 0.10000000)
		(0.36871508 0.23244856 0.10000000)
		(0.38547486 0.23998567 0.10000000)
		(0.40223464 0.24545113 0.10000000)
		(0.41899441 0.24879775 0.10000000)
		(0.43575419 0.24999666 0.10000000)
		(0.45251397 0.24903750 0.10000000)
		(0.46927374 0.24592856 0.10000000)
		(0.48603352 0.24069666 0.10000000)
		(0.50279330 0.23338697 0.10000000)
		(0.51955307 0.22406260 0.10000000)
		(0.53631285 0.21280404 0.10000000)
		(0.55307263 0.19970846 0.10000000)
		(0.56983240 0.18488893 0.10000000)
		(0.58659218 0.16847336 0.10000000)
		(0.60335196 0.15060346 0.10000000)
		(0.62011173 0.13143350 0.10000000)
		(0.63687151 0.11112895 0.10000000)
		(0.65363128 0.08986510 0.10000000)
		(0.67039106 0.06782549 0.10000000)
		(0.68715084 0.04520039 0.10000000)
		(0.70391061 0.02218510 0.10000000)
		(0.72067039 -0.00102170 0.10000000)
		(0.73743017 -0.02421968 0.10000000)
		(0.75418994 -0.04720858 0.10000000)
		(0.77094972 -0.06978997 0.10000000)
		(0.78770950 -0.09176890 0.10000000)
		(0.80446927 -0.11295564 0.10000000)
		(0.82122905 -0.13316731 0.10000000)
		(0.83798883 -0.15222942 0.10000000)
		(0.85474860 -0.16997744 0.10000000)
		(0.87150838 -0.18625814 0.10000000)
		(0.88826816 -0.20093099 0.10000000)
		(0.90502793 -0.21386932 0.10000000)
		(0.92178771 -0.22496145 0.10000000)
		(0.93854749 -0.23411163 0.10000000)
		(0.95530726 -0.24124087 0.10000000)
		(0.97206704 -0.24628762 0.10000000)
		(0.98882682 -0.24920832 0.10000000)
		(1.00558659 -0.24997776 0.10000000)
		(1.02234637 -0.24858929 0.10000000)
		(1.03910615 -0.24505490 0.10000000)
		(1.05586592 -0.23940511 0.10000000)
		(1.07262570 -0.23168867 0.10000000)
		(1.08938547 -0.22197221 0.10000000)
		(1.10614525 -0.21033960 0.10000000)
		(1.12290503 -0.19689126 0.10000000)
		(1.13966480 -0.18174328 0.10000000)
		(1.15642458 -0.16502641 0.10000000)
		(1.17318436 -0.14688498 0.10000000)
		(1.18994413 -0.12747558 0.10000000)
		(1.20670391 -0.10696576 0.10000000)
		(1.22346369 -0.08553256 0.10000000)
		(1.24022346 -0.06336102 0.10000000)
		(1.25698324 -0.04064252 0.10000000)
		(1.27374302 -0.01757318 0.10000000)
		(1.29050279 0.00564786 0.10000000)
		(1.30726257 0.02882014 0.10000000)
		(1.32402235 0.05174364 0.10000000)
		(1.34078212 0.07422046 0.10000000)
		(1.35754190 0.09605659 0.10000000)
		(1.37430168 0.11706352 0.10000000)
		(1.39106145 0.13705991 0.10000000)
		(1.40782123 0.15587315 0.10000000)
		(1.42458101 0.17334083 0.10000000)
		(1.44134078 0.18931216 0.10000000)
		(1.45810056 0.20364928 0.10000000)
		(1.47486034 0.21622842 0.10000000)
		(1.49162011 0.22694099 0.10000000)
		(1.50837989 0.23569452 0.10000000)
		(1.52513966 0.24241344 0.10000000)
		(1.54189944 0.24703976 0.10000000)
		(1.55865922 0.24953353 0.10000000)
		(1.57541899 0.24987323 0.10000000)
		(1.59217877 0.24805593 0.10000000)
		(1.60893855 0.24409732 0.10000000)
		(1.62569832 0.23803156 0.10000000)
		(1.64245810 0.22991102 0.10000000)
		(1.65921788 0.21980580 0.10000000)
		(1.67597765 0.20780314 0.10000000)
		(1.69273743 0.19400663 0.10000000)
		(1.70949721 0.17853538 0.10000000)
		(1.72625698 0.16152295 0.10000000)
		(1.74301676 0.14311619 0.10000000)
		(1.75977654 0.12347399 0.10000000)
		(1.77653631 0.10276592 0.10000000)
		(1.79329609 0.08117074 0.10000000)
		(1.81005587 0.05887485 0.10000000)
		(1.82681564 0.03607074 0.10000000)
		(1.84357542 0.01295525 0.10000000)
		(1.86033520 -0.01027208 0.10000000)
		(1.87709497 -0.03341073 0.10000000)
		(1.89385475 -0.05626097 0.10000000)
		(1.91061453 -0.07862554 0.10000000)
		(1.92737430 -0.10031139 0.10000000)
		(1.94413408 -0.12113131 0.10000000)
		(1.96089385 -0.14090557 0.10000000)
		(1.97765363 -0.15946349 0.10000000)
		(1.99441341 -0.17664485 0.10000000)
		(2.01117318 -0.19230135 0.10000000)
		(2.02793296 -0.20629783 0.10000000)
		(2.04469274 -0.21851347 0.10000000)
		(2.06145251 -0.22884281 0.10000000)
		(2.07821229 -0.23719669 0.10000000)
		(2.09497207 -0.24350300 0.10000000)
		(2.11173184 -0.24770729 0.10000000)
		(2.12849162 -0.24977329 0.10000000)
		(2.14525140 -0.24968314 0.10000000)
		(2.16201117 -0.24743763 0.10000000)
		(2.17877095 -0.24305614 0.10000000)
		(2.19553073 -0.23657650 0.10000000)
		(2.21229050 -0.22805463 0.10000000)
		(2.22905028 -0.21756411 0.10000000)
		(2.24581006 -0.20519550 0.10000000)
		(2.26256983 -0.19105555 0.10000000)
		(2.27932961 -0.17526634 0.10000000)
		(2.29608939 -0.15796417 0.10000000)
		(2.31284916 -0.13929838 0.10000000)
		(2.32960894 -0.11943012 0.10000000)
		(2.34636872 -0.09853089 0.10000000)
		(2.36312849 -0.07678111 0.10000000)
		(2.37988827 -0.05436852 0.10000000)
		(2.39664804 -0.03148660 0.10000000)
		(2.41340782 -0.00833287 0.10000000)
		(2.43016760 0.01489278 0.10000000)
		(2.44692737 0.03798988 0.10000000)
		(2.46368715 0.06075903 0.10000000)
		(2.48044693 0.08300369 0.10000000)
		(2.49720670 0.10453183 0.10000000)
		(2.51396648 0.12515761 0.10000000)
		(2.53072626 0.14470298 0.10000000)
		(2.54748603 0.16299922 0.10000000)
		(2.56424581 0.17988838 0.10000000)
		(2.58100559 0.19522468 0.10000000)
		(2.59776536 0.20887572 0.10000000)
		(2.61452514 0.22072367 0.10000000)
		(2.63128492 0.23066625 0.10000000)
		(2.64804469 0.23861762 0.10000000)
		(2.66480447 0.24450916 0.10000000)
		(2.68156425 0.24828999 0.10000000)
		(2.69832402 0.24992750 0.10000000)
		(2.71508380 0.24940753 0.10000000)
		(2.73184358 0.24673458 0.10000000)
		(2.74860335 0.24193171 0.10000000)
		(2.76536313 0.23504041 0.10000000)
		(2.78212291 0.22612014 0.10000000)
		(2.79888268 0.21524791 0.10000000)
		(2.81564246 0.20251758 0.10000000)
		(2.83240223 0.18803905 0.10000000)
		(2.84916201 0.17193728 0.10000000)
		(2.86592179 0.15435129 0.10000000)
		(2.88268156 0.13543287 0.10000000)
		(2.89944134 0.11534535 0.10000000)
		(2.91620112 0.09426212 0.10000000)
		(2.93296089 0.07236518 0.10000000)
		(2.95166480 0.05490921 0.10000000)
		(2.97036872 0.03929070 0.10000000)
		(2.98907263 0.02550966 0.10000000)
		(3.00777654 0.01356610 0.10000000)
		(3.02648045 0.00346000 0.10000000)
		(3.04518436 -0.00480862 0.10000000)
		(3.06388827 -0.01123977 0.10000000)
		(3.08259218 -0.01583345 0.10000000)
		(3.10129609 -0.01858965 0.10000000)
		(3.12000000 -0.01950839 0.10000000)
		(3.14000000 -0.01950839 0.10000000)
		(3.16000000 -0.01950839 0.10000000)
		(3.18000000 -0.01950839 0.10000000)
		(3.20000000 -0.01950839 0.10000000)
		(3.22000000 -0.01950839 0.10000000)
		(3.24000000 -0.01950839 0.10000000)
		(3.26000000 -0.01950839 0.10000000)
		(3.28000000 -0.01950839 0.10000000)
		(3.30000000 -0.01950839 0.10000000)
		(3.32000000 -0.01950839 0.10000000)
		(3.34000000 -0.01950839 0.10000000)
		(3.36000000 -0.01950839 0.10000000)
		(3.38000000 -0.01950839 0.10000000)
		(3.40000000 -0.01950839 0.10000000)
		(3.42000000 -0.01950839 0.10000000)
		(3.44000000 -0.01950839 0.10000000)
		(3.46000000 -0.01950839 0.10000000)
		(3.48000000 -0.01950839 0.10000000)
		(3.50000000 -0.01950839 0.10000000)
		(3.52000000 -0.01950839 0.10000000)
		(3.54000000 -0.01950839 0.10000000)
		(3.56000000 -0.01950839 0.10000000)
		(3.58000000 -0.01950839 0.10000000)
		(3.60000000 -0.01950839 0.10000000)
		(3.62000000 -0.01950839 0.10000000)
		(3.64000000 -0.01950839 0.10000000)
		(3.66000000 -0.01950839 0.10000000)
		(3.68000000 -0.01950839 0.10000000)
		(3.70000000 -0.01950839 0.10000000)
		(3.72000000 -0.01950839 0.10000000)
		(3.74000000 -0.01950839 0.10000000)
		(3.76000000 -0.01950839 0.10000000)
		(3.78000000 -0.01950839 0.10000000)
		(3.80000000 -0.01950839 0.10000000)
		(3.82000000 -0.01950839 0.10000000)
		(3.84000000 -0.01950839 0.10000000)
		(3.86000000 -0.01950839 0.10000000)
		(3.88000000 -0.01950839 0.10000000)
		(3.90000000 -0.01950839 0.10000000)
		(3.92000000 -0.01950839 0.10000000)
		(3.94000000 -0.01950839 0.10000000)
		(3.96000000 -0.01950839 0.10000000)
		(3.98000000 -0.01950839 0.10000000)
		(4.00000000 -0.01950839 0.10000000)
	)
	polyLine 3 2
	(
		(-1.00000000 0.31202874 0.00000000)
		(-0.98000000 0.31312311 0.00000000)
		(-0.96000000 0.31421748 0.00000000)
		(-0.94000000 0.31531185 0.00000000)
		(-0.92000000 0.31640622 0.00000000)
		(-0.90000000 0.31750058 0.00000000)
		(-0.88000000 0.31859495 0.00000000)
		(-0.86000000 0.31968932 0.00000000)
		(-0.84000000 0.32078369 0.00000000)
		(-0.82000000 0.32187805 0.00000000)
		(-0.80000000 0.32297242 0.00000000)
		(-0.78000000 0.32406679 0.00000000)
		(-0.76000000 0.32516116 0.00000000)
		(-0.74000000 0.32625553 0.00000000)
		(-0.72000000 0.32734989 0.00000000)
		(-0.70000000 0.32844426 0.00000000)
		(-0.68000000 0.32953863 0.00000000)
		(-0.66000000 0.33063300 0.00000000)
		(-0.64000000 0.33172737 0.00000000)
		(-0.62000000 0.33282173 0.00000000)
		(-0.60000000 0.33391610 0.00000000)
		(-0.58000000 0.33501047 0.00000000)
		(-0.56000000 0.33610484 0.00000000)
		(-0.54000000 0.33719920 0.00000000)
		(-0.52000000 0.33829357 0.00000000)
		(-0.50000000 0.33938794 0.00000000)
		(-0.48000000 0.34048231 0.00000000)
		(-0.46000000 0.34157668 0.00000000)
		(-0.44000000 0.34267104 0.00000000)
		(-0.42000000 0.34376541 0.00000000)
		(-0.40000000 0.34485978 0.00000000)
		(-0.38000000 0.34595415 0.00000000)
		(-0.36000000 0.34704851 0.00000000)
		(-0.34000000 0.34814288 0.00000000)
		(-0.32000000 0.34923725 0.00000000)
		(-0.30000000 0.35033162 0.00000000)
		(-0.28000000 0.35142599 0.00000000)
		(-0.26000000 0.35252035 0.00000000)
		(-0.24000000 0.35361472 0.00000000)
		(-0.22000000 0.35470909 0.00000000)
		(-0.20000000 0.35580346 0.00000000)
		(-0.18000000 0.35689782 0.00000000)
		(-0.16000000 0.35799219 0.00000000)
		(-0.14000000 0.35908656 0.00000000)
		(-0.12000000 0.36018093 0.00000000)
		(-0.10000000 0.36127530 0.00000000)
		(-0.08162011 0.36159123 0.00000000)
		(-0.06324022 0.36342409 0.00000000)
		(-0.04486034 0.36677390 0.00000000)
		(-0.02648045 0.37164065 0.00000000)
		(-0.00810056 0.37802434 0.00000000)
		(0.01027933 0.38592496 0.00000000)
		(0.02865922 0.39534253 0.00000000)
		(0.04703911 0.40627703 0.00000000)
		(0.06541899 0.41872847 0.00000000)
		(0.08379888 0.43269686 0.00000000)
		(0.10055866 0.44834936 0.00000000)
		(0.11731844 0.46444773 0.00000000)
		(0.13407821 0.48085300 0.00000000)
		(0.15083799 0.49742356 0.00000000)
		(0.16759777 0.51401636 0.00000000)
		(0.18435754 0.53048816 0.00000000)
		(0.20111732 0.54669678 0.00000000)
		(0.21787709 0.56250230 0.00000000)
		(0.23463687 0.57776826 0.00000000)
		(0.25139665 0.59236291 0.00000000)
		(0.26815642 0.60616024 0.00000000)
		(0.28491620 0.61904115 0.00000000)
		(0.30167598 0.63089446 0.00000000)
		(0.31843575 0.64161783 0.00000000)
		(0.33519553 0.65111871 0.00000000)
		(0.35195531 0.65931506 0.00000000)
		(0.36871508 0.66613615 0.00000000)
		(0.38547486 0.67152309 0.00000000)
		(0.40223464 0.67542937 0.00000000)
		(0.41899441 0.67782128 0.00000000)
		(0.43575419 0.67867817 0.00000000)
		(0.45251397 0.67799264 0.00000000)
		(0.46927374 0.67577060 0.00000000)
		(0.48603352 0.67203125 0.00000000)
		(0.50279330 0.66680686 0.00000000)
		(0.51955307 0.66014252 0.00000000)
		(0.53631285 0.65209577 0.00000000)
		(0.55307263 0.64273608 0.00000000)
		(0.56983240 0.63214422 0.00000000)
		(0.58659218 0.62041165 0.00000000)
		(0.60335196 0.60763964 0.00000000)
		(0.62011173 0.59393844 0.00000000)
		(0.63687151 0.57942633 0.00000000)
		(0.65363128 0.56422858 0.00000000)
		(0.67039106 0.54847639 0.00000000)
		(0.68715084 0.53230572 0.00000000)
		(0.70391061 0.51585619 0.00000000)
		(0.72067039 0.49926977 0.00000000)
		(0.73743017 0.48268966 0.00000000)
		(0.75418994 0.46625898 0.00000000)
		(0.77094972 0.45011956 0.00000000)
		(0.78770950 0.43441073 0.00000000)
		(0.80446927 0.41926809 0.00000000)
		(0.82122905 0.40482237 0.00000000)
		(0.83798883 0.39119825 0.00000000)
		(0.85474860 0.37851335 0.00000000)
		(0.87150838 0.36687717 0.00000000)
		(0.88826816 0.35639016 0.00000000)
		(0.90502793 0.34714284 0.00000000)
		(0.92178771 0.33921505 0.00000000)
		(0.93854749 0.33267521 0.00000000)
		(0.95530726 0.32757979 0.00000000)
		(0.97206704 0.32397277 0.00000000)
		(0.98882682 0.32188528 0.00000000)
		(1.00558659 0.32133534 0.00000000)
		(1.02234637 0.32232771 0.00000000)
		(1.03910615 0.32485382 0.00000000)
		(1.05586592 0.32889185 0.00000000)
		(1.07262570 0.33440696 0.00000000)
		(1.08938547 0.34135153 0.00000000)
		(1.10614525 0.34966561 0.00000000)
		(1.12290503 0.35927744 0.00000000)
		(1.13966480 0.37010404 0.00000000)
		(1.15642458 0.38205195 0.00000000)
		(1.17318436 0.39501804 0.00000000)
		(1.18994413 0.40889037 0.00000000)
		(1.20670391 0.42354920 0.00000000)
		(1.22346369 0.43886798 0.00000000)
		(1.24022346 0.45471447 0.00000000)
		(1.25698324 0.47095188 0.00000000)
		(1.27374302 0.48744006 0.00000000)
		(1.29050279 0.50403665 0.00000000)
		(1.30726257 0.52059839 0.00000000)
		(1.32402235 0.53698233 0.00000000)
		(1.34078212 0.55304702 0.00000000)
		(1.35754190 0.56865378 0.00000000)
		(1.37430168 0.58366790 0.00000000)
		(1.39106145 0.59795976 0.00000000)
		(1.40782123 0.61140600 0.00000000)
		(1.42458101 0.62389054 0.00000000)
		(1.44134078 0.63530561 0.00000000)
		(1.45810056 0.64555267 0.00000000)
		(1.47486034 0.65454326 0.00000000)
		(1.49162011 0.66219977 0.00000000)
		(1.50837989 0.66845611 0.00000000)
		(1.52513966 0.67325828 0.00000000)
		(1.54189944 0.67656481 0.00000000)
		(1.55865922 0.67834716 0.00000000)
		(1.57541899 0.67858995 0.00000000)
		(1.59217877 0.67729109 0.00000000)
		(1.60893855 0.67446178 0.00000000)
		(1.62569832 0.67012645 0.00000000)
		(1.64245810 0.66432252 0.00000000)
		(1.65921788 0.65710009 0.00000000)
		(1.67597765 0.64852152 0.00000000)
		(1.69273743 0.63866085 0.00000000)
		(1.70949721 0.62760321 0.00000000)
		(1.72625698 0.61544404 0.00000000)
		(1.74301676 0.60228832 0.00000000)
		(1.75977654 0.58824961 0.00000000)
		(1.77653631 0.57344909 0.00000000)
		(1.79329609 0.55801453 0.00000000)
		(1.81005587 0.54207916 0.00000000)
		(1.82681564 0.52578056 0.00000000)
		(1.84357542 0.50925940 0.00000000)
		(1.86033520 0.49265832 0.00000000)
		(1.87709497 0.47612061 0.00000000)
		(1.89385475 0.45978903 0.00000000)
		(1.91061453 0.44380458 0.00000000)
		(1.92737430 0.42830522 0.00000000)
		(1.94413408 0.41342476 0.00000000)
		(1.96089385 0.39929165 0.00000000)
		(1.97765363 0.38602790 0.00000000)
		(1.99441341 0.37374800 0.00000000)
		(2.01117318 0.36255795 0.00000000)
		(2.02793296 0.35255436 0.00000000)
		(2.04469274 0.34382357 0.00000000)
		(2.06145251 0.33644096 0.00000000)
		(2.07821229 0.33047026 0.00000000)
		(2.09497207 0.32596300 0.00000000)
		(2.11173184 0.32295809 0.00000000)
		(2.12849162 0.32148148 0.00000000)
		(2.14525140 0.32154591 0.00000000)
		(2.16201117 0.32315083 0.00000000)
		(2.17877095 0.32628238 0.00000000)
		(2.19553073 0.33091352 0.00000000)
		(2.21229050 0.33700429 0.00000000)
		(2.22905028 0.34450209 0.00000000)
		(2.24581006 0.35334222 0.00000000)
		(2.26256983 0.36344835 0.00000000)
		(2.27932961 0.37473325 0.00000000)
		(2.29608939 0.38709950 0.00000000)
		(2.31284916 0.40044035 0.00000000)
		(2.32960894 0.41464064 0.00000000)
		(2.34636872 0.42957778 0.00000000)
		(2.36312849 0.44512284 0.00000000)
		(2.37988827 0.46114161 0.00000000)
		(2.39664804 0.47749583 0.00000000)
		(2.41340782 0.49404431 0.00000000)
		(2.43016760 0.51064420 0.00000000)
		(2.44692737 0.52715221 0.00000000)
		(2.46368715 0.54342583 0.00000000)
		(2.48044693 0.55932458 0.00000000)