/*--------------------------------*- C++ -*----------------------------------*\\
/*--------------------------------*- C++ -*----------------------------------*\\
| =========                 |                                                 |
| \\\\      /  F ield         | OpenFOAM: The Open Source CFD Toolbox           |
|  \\\\    /   O peration     | Version:  v2012                                 |
|   \\\\  /    A nd           | Website:  www.openfoam.com                      |
|    \\\\/     M anipulation  |                                                 |
\\*---------------------------------------------------------------------------*/
FoamFile
{
    version     2.0;
    format      ascii;
    class       dictionary;
    object      blockMeshDict;
}
// * * * * * * * * * * * * * * * * * * * * * * * * * * * * * * * * * * * * * //

scale   0.01;

xmin -1;
xmax 5;
ymin 0;
ymax 0.5;
zmin 0;
zmax 0.1;

vertices
(
    (-1.00000000 -0.13522083 0.00000000)
    (4.00000000 0.07846679 0.00000000)
    (4.00000000 0.57846679 0.00000000)
    (-1.00000000 0.36477917 0.00000000)
    (-1.00000000 -0.13522083 0.10000000)
    (4.00000000 0.07846679 0.10000000)
    (4.00000000 0.57846679 0.10000000)
    (-1.00000000 0.36477917 0.10000000)
);

blocks
(
    hex (0 1 2 3 4 5 6 7) (200 20 1) simpleGrading (1 1 1)
);

edges
(
	polyLine 0 1
	(
		(-1.00000000 -0.13522083 0.00000000)
		(-0.98000000 -0.13522083 0.00000000)
		(-0.96000000 -0.13522083 0.00000000)
		(-0.94000000 -0.13522083 0.00000000)
		(-0.92000000 -0.13522083 0.00000000)
		(-0.90000000 -0.13522083 0.00000000)
		(-0.88000000 -0.13522083 0.00000000)
		(-0.86000000 -0.13522083 0.00000000)
		(-0.84000000 -0.13522083 0.00000000)
		(-0.82000000 -0.13522083 0.00000000)
		(-0.80000000 -0.13522083 0.00000000)
		(-0.78000000 -0.13522083 0.00000000)
		(-0.76000000 -0.13522083 0.00000000)
		(-0.74000000 -0.13522083 0.00000000)
		(-0.72000000 -0.13522083 0.00000000)
		(-0.70000000 -0.13522083 0.00000000)
		(-0.68000000 -0.13522083 0.00000000)
		(-0.66000000 -0.13522083 0.00000000)
		(-0.64000000 -0.13522083 0.00000000)
		(-0.62000000 -0.13522083 0.00000000)
		(-0.60000000 -0.13522083 0.00000000)
		(-0.58000000 -0.13522083 0.00000000)
		(-0.56000000 -0.13522083 0.00000000)
		(-0.54000000 -0.13522083 0.00000000)
		(-0.52000000 -0.13522083 0.00000000)
		(-0.50000000 -0.13522083 0.00000000)
		(-0.48000000 -0.13522083 0.00000000)
		(-0.46000000 -0.13522083 0.00000000)
		(-0.44000000 -0.13522083 0.00000000)
		(-0.42000000 -0.13522083 0.00000000)
		(-0.40000000 -0.13522083 0.00000000)
		(-0.38000000 -0.13522083 0.00000000)
		(-0.36000000 -0.13522083 0.00000000)
		(-0.34000000 -0.13522083 0.00000000)
		(-0.32000000 -0.13522083 0.00000000)
		(-0.30000000 -0.13522083 0.00000000)
		(-0.28000000 -0.13522083 0.00000000)
		(-0.26000000 -0.13522083 0.00000000)
		(-0.24000000 -0.13522083 0.00000000)
		(-0.22000000 -0.13522083 0.00000000)
		(-0.20000000 -0.13522083 0.00000000)
		(-0.18000000 -0.13522083 0.00000000)
		(-0.16000000 -0.13522083 0.00000000)
		(-0.14000000 -0.13522083 0.00000000)
		(-0.12000000 -0.13522083 0.00000000)
		(-0.10000000 -0.13522083 0.00000000)
		(-0.08162011 -0.13570957 0.00000000)
		(-0.06324022 -0.13717579 0.00000000)
		(-0.04486034 -0.13961950 0.00000000)
		(-0.02648045 -0.14304068 0.00000000)
		(-0.00810056 -0.14743935 0.00000000)
		(0.01027933 -0.15281550 0.00000000)
		(0.02865922 -0.15916913 0.00000000)
		(0.04703911 -0.16650024 0.00000000)
		(0.06541899 -0.17480883 0.00000000)
		(0.08379888 -0.18409490 0.00000000)
		(0.10055866 -0.19251686 0.00000000)
		(0.11731844 -0.20043341 0.00000000)
		(0.13407821 -0.20782375 0.00000000)
		(0.15083799 -0.21466850 0.00000000)
		(0.16759777 -0.22094968 0.00000000)
		(0.18435754 -0.22665079 0.00000000)
		(0.20111732 -0.23175688 0.00000000)
		(0.21787709 -0.23625454 0.00000000)
		(0.23463687 -0.24013196 0.00000000)
		(0.25139665 -0.24337895 0.00000000)
		(0.26815642 -0.24598701 0.00000000)
		(0.28491620 -0.24794927 0.00000000)
		(0.30167598 -0.24926059 0.00000000)
		(0.31843575 -0.24991753 0.00000000)
		(0.33519553 -0.24991836 0.00000000)
		(0.35195531 -0.24926308 0.00000000)
		(0.36871508 -0.24795340 0.00000000)
		(0.38547486 -0.24599277 0.00000000)
		(0.40223464 -0.24338634 0.00000000)
		(0.41899441 -0.24014094 0.00000000)
		(0.43575419 -0.23626510 0.00000000)
		(0.45251397 -0.23176900 0.00000000)
		(0.46927374 -0.22666443 0.00000000)
		(0.48603352 -0.22096479 0.00000000)
		(0.50279330 -0.21468506 0.00000000)
		(0.51955307 -0.20784171 0.00000000)
		(0.53631285 -0.20045272 0.00000000)
		(0.55307263 -0.19253748 0.00000000)
		(0.56983240 -0.18411677 0.00000000)
		(0.58659218 -0.17521269 0.00000000)
		(0.60335196 -0.16584863 0.00000000)
		(0.62011173 -0.15604917 0.00000000)
		(0.63687151 -0.14584002 0.00000000)
		(0.65363128 -0.13524801 0.00000000)
		(0.67039106 -0.12430093 0.00000000)
		(0.68715084 -0.11302752 0.00000000)
		(0.70391061 -0.10145738 0.00000000)
		(0.72067039 -0.08962088 0.00000000)
		(0.73743017 -0.07754910 0.00000000)
		(0.75418994 -0.06527373 0.00000000)
		(0.77094972 -0.05282700 0.00000000)
		(0.78770950 -0.04024158 0.00000000)
		(0.80446927 -0.02755051 0.00000000)
		(0.82122905 -0.01478712 0.00000000)
		(0.83798883 -0.00198490 0.00000000)
		(0.85474860 0.01082252 0.00000000)
		(0.87150838 0.02360154 0.00000000)
		(0.88826816 0.03631859 0.00000000)
		(0.90502793 0.04894029 0.00000000)
		(0.92178771 0.06143352 0.00000000)
		(0.93854749 0.07376546 0.00000000)
		(0.95530726 0.08590374 0.00000000)
		(0.97206704 0.09781650 0.00000000)
		(0.98882682 0.10947246 0.00000000)
		(1.00558659 0.12084103 0.00000000)
		(1.02234637 0.13189235 0.00000000)
		(1.03910615 0.14259741 0.00000000)
		(1.05586592 0.15292811 0.00000000)
		(1.07262570 0.16285733 0.00000000)
		(1.08938547 0.17235900 0.00000000)
		(1.10614525 0.18140817 0.00000000)
		(1.12290503 0.18998109 0.00000000)
		(1.13966480 0.19805525 0.00000000)
		(1.15642458 0.20560946 0.00000000)
		(1.17318436 0.21262389 0.00000000)
		(1.18994413 0.21908011 0.00000000)
		(1.20670391 0.22496117 0.00000000)
		(1.22346369 0.23025165 0.00000000)
		(1.24022346 0.23493765 0.00000000)
		(1.25698324 0.23900686 0.00000000)
		(1.27374302 0.24244861 0.00000000)
		(1.29050279 0.24525385 0.00000000)
		(1.30726257 0.24741524 0.00000000)
		(1.32402235 0.24892708 0.00000000)
		(1.34078212 0.24978541 0.00000000)
		(1.35754190 0.24998798 0.00000000)
		(1.37430168 0.24953425 0.00000000)
		(1.39106145 0.24842543 0.00000000)
		(1.40782123 0.24666441 0.00000000)
		(1.42458101 0.24425582 0.00000000)
		(1.44134078 0.24120598 0.00000000)
		(1.45810056 0.23752291 0.00000000)
		(1.47486034 0.23321627 0.00000000)
		(1.49162011 0.22829736 0.00000000)
		(1.50837989 0.22277910 0.00000000)
		(1.52513966 0.21667599 0.00000000)
		(1.54189944 0.21000403 0.00000000)
		(1.55865922 0.20278074 0.00000000)
		(1.57541899 0.19502510 0.00000000)
		(1.59217877 0.18675745 0.00000000)
		(1.60893855 0.17799952 0.00000000)
		(1.62569832 0.16877427 0.00000000)
		(1.64245810 0.15910595 0.00000000)
		(1.65921788 0.14901992 0.00000000)
		(1.67597765 0.13854267 0.00000000)
		(1.69273743 0.12770171 0.00000000)
		(1.70949721 0.11652548 0.00000000)
		(1.72625698 0.10504335 0.00000000)
		(1.74301676 0.09328544 0.00000000)
		(1.75977654 0.08128263 0.00000000)
		(1.77653631 0.06906643 0.00000000)
		(1.79329609 0.05666891 0.00000000)
		(1.81005587 0.04412261 0.00000000)
		(1.82681564 0.03146048 0.00000000)
		(1.84357542 0.01871576 0.00000000)
		(1.86033520 0.00592190 0.00000000)
		(1.87709497 -0.00688750 0.00000000)
		(1.89385475 -0.01967883 0.00000000)
		(1.91061453 -0.03241849 0.00000000)
		(1.92737430 -0.04507304 0.00000000)
		(1.94413408 -0.05760926 0.00000000)
		(1.96089385 -0.06999424 0.00000000)
		(1.97765363 -0.08219546 0.00000000)
		(1.99441341 -0.09418090 0.00000000)
		(2.01117318 -0.10591908 0.00000000)
		(2.02793296 -0.11737919 0.00000000)
		(2.04469274 -0.12853115 0.00000000)
		(2.06145251 -0.13934567 0.00000000)
		(2.07821229 -0.14979437 0.00000000)
		(2.09497207 -0.15984981 0.00000000)
		(2.11173184 -0.16948560 0.00000000)
		(2.12849162 -0.17867643 0.00000000)
		(2.14525140 -0.18739819 0.00000000)
		(2.16201117 -0.19562797 0.00000000)
		(2.17877095 -0.20334417 0.00000000)
		(2.19553073 -0.21052653 0.00000000)
		(2.21229050 -0.21715619 0.00000000)
		(2.22905028 -0.22321575 0.00000000)
		(2.24581006 -0.22868930 0.00000000)
		(2.26256983 -0.23356247 0.00000000)
		(2.27932961 -0.23782247 0.00000000)
		(2.29608939 -0.24145812 0.00000000)
		(2.31284916 -0.24445986 0.00000000)
		(2.32960894 -0.24681982 0.00000000)
		(2.34636872 -0.24853181 0.00000000)
		(2.36312849 -0.24959132 0.00000000)
		(2.37988827 -0.24999558 0.00000000)
		(2.39664804 -0.24974353 0.00000000)
		(2.41340782 -0.24883583 0.00000000)
		(2.43016760 -0.24727485 0.00000000)
		(2.44692737 -0.24506470 0.00000000)
		(2.46368715 -0.24221119 0.00000000)
		(2.48044693 -0.23872179 0.00000000)
		(2.49720670 -0.23460568 0.00000000)
		(2.51396648 -0.22987366 0.00000000)
		(2.53072626 -0.22453815 0.00000000)
		(2.54748603 -0.21861316 0.00000000)
		(2.56424581 -0.21211424 0.00000000)
		(2.58100559 -0.20505846 0.00000000)
		(2.59776536 -0.19746434 0.00000000)
		(2.61452514 -0.18935182 0.00000000)
		(2.63128492 -0.18074219 0.00000000)
		(2.64804469 -0.17165805 0.00000000)
		(2.66480447 -0.16212326 0.00000000)
		(2.68156425 -0.15216285 0.00000000)
		(2.69832402 -0.14180297 0.00000000)
		(2.71508380 -0.13107080 0.00000000)
		(2.73184358 -0.11999454 0.00000000)
		(2.74860335 -0.10860326 0.00000000)
		(2.76536313 -0.09692686 0.00000000)
		(2.78212291 -0.08499600 0.00000000)
		(2.79888268 -0.07284199 0.00000000)
		(2.81564246 -0.06049676 0.00000000)
		(2.83240223 -0.04799270 0.00000000)
		(2.84916201 -0.03536265 0.00000000)
		(2.86592179 -0.02263976 0.00000000)
		(2.88268156 -0.00985743 0.00000000)
		(2.89944134 0.00295077 0.00000000)
		(2.91620112 0.01575123 0.00000000)
		(2.93296089 0.02851034 0.00000000)
		(2.95166480 0.03800207 0.00000000)
		(2.97036872 0.04649466 0.00000000)
		(2.98907263 0.05398813 0.00000000)
		(3.00777654 0.06048247 0.00000000)
		(3.02648045 0.06597768 0.00000000)
		(3.04518436 0.07047376 0.00000000)
		(3.06388827 0.07397071 0.00000000)
		(3.08259218 0.07646853 0.00000000)
		(3.10129609 0.07796723 0.00000000)
		(3.12000000 0.07846679 0.00000000)
		(3.14000000 0.07846679 0.00000000)
		(3.16000000 0.07846679 0.00000000)
		(3.18000000 0.07846679 0.00000000)
		(3.20000000 0.07846679 0.00000000)
		(3.22000000 0.07846679 0.00000000)
		(3.24000000 0.07846679 0.00000000)
		(3.26000000 0.07846679 0.00000000)
		(3.28000000 0.07846679 0.00000000)
		(3.30000000 0.07846679 0.00000000)
		(3.32000000 0.07846679 0.00000000)
		(3.34000000 0.07846679 0.00000000)
		(3.36000000 0.07846679 0.00000000)
		(3.38000000 0.07846679 0.00000000)
		(3.40000000 0.07846679 0.00000000)
		(3.42000000 0.07846679 0.00000000)
		(3.44000000 0.07846679 0.00000000)
		(3.46000000 0.07846679 0.00000000)
		(3.48000000 0.07846679 0.00000000)
		(3.50000000 0.07846679 0.00000000)
		(3.52000000 0.07846679 0.00000000)
		(3.54000000 0.07846679 0.00000000)
		(3.56000000 0.07846679 0.00000000)
		(3.58000000 0.07846679 0.00000000)
		(3.60000000 0.07846679 0.00000000)
		(3.62000000 0.07846679 0.00000000)
		(3.64000000 0.07846679 0.00000000)
		(3.66000000 0.07846679 0.00000000)
		(3.68000000 0.07846679 0.00000000)
		(3.70000000 0.07846679 0.00000000)
		(3.72000000 0.07846679 0.00000000)
		(3.74000000 0.07846679 0.00000000)
		(3.76000000 0.07846679 0.00000000)
		(3.78000000 0.07846679 0.00000000)
		(3.80000000 0.07846679 0.00000000)
		(3.82000000 0.07846679 0.00000000)
		(3.84000000 0.07846679 0.00000000)
		(3.86000000 0.07846679 0.00000000)
		(3.88000000 0.07846679 0.00000000)
		(3.90000000 0.07846679 0.00000000)
		(3.92000000 0.07846679 0.00000000)
		(3.94000000 0.07846679 0.00000000)
		(3.96000000 0.07846679 0.00000000)
		(3.98000000 0.07846679 0.00000000)
		(4.00000000 0.07846679 0.00000000)
	)
	polyLine 4 5
	(
		(-1.00000000 -0.13522083 0.10000000)
		(-0.98000000 -0.13522083 0.10000000)
		(-0.96000000 -0.13522083 0.10000000)
		(-0.94000000 -0.13522083 0.10000000)
		(-0.92000000 -0.13522083 0.10000000)
		(-0.90000000 -0.13522083 0.10000000)
		(-0.88000000 -0.13522083 0.10000000)
		(-0.86000000 -0.13522083 0.10000000)
		(-0.84000000 -0.13522083 0.10000000)
		(-0.82000000 -0.13522083 0.10000000)
		(-0.80000000 -0.13522083 0.10000000)
		(-0.78000000 -0.13522083 0.10000000)
		(-0.76000000 -0.13522083 0.10000000)
		(-0.74000000 -0.13522083 0.10000000)
		(-0.72000000 -0.13522083 0.10000000)
		(-0.70000000 -0.13522083 0.10000000)
		(-0.68000000 -0.13522083 0.10000000)
		(-0.66000000 -0.13522083 0.10000000)
		(-0.64000000 -0.13522083 0.10000000)
		(-0.62000000 -0.13522083 0.10000000)
		(-0.60000000 -0.13522083 0.10000000)
		(-0.58000000 -0.13522083 0.10000000)
		(-0.56000000 -0.13522083 0.10000000)
		(-0.54000000 -0.13522083 0.10000000)
		(-0.52000000 -0.13522083 0.10000000)
		(-0.50000000 -0.13522083 0.10000000)
		(-0.48000000 -0.13522083 0.10000000)
		(-0.46000000 -0.13522083 0.10000000)
		(-0.44000000 -0.13522083 0.10000000)
		(-0.42000000 -0.13522083 0.10000000)
		(-0.40000000 -0.13522083 0.10000000)
		(-0.38000000 -0.13522083 0.10000000)
		(-0.36000000 -0.13522083 0.10000000)
		(-0.34000000 -0.13522083 0.10000000)
		(-0.32000000 -0.13522083 0.10000000)
		(-0.30000000 -0.13522083 0.10000000)
		(-0.28000000 -0.13522083 0.10000000)
		(-0.26000000 -0.13522083 0.10000000)
		(-0.24000000 -0.13522083 0.10000000)
		(-0.22000000 -0.13522083 0.10000000)
		(-0.20000000 -0.13522083 0.10000000)
		(-0.18000000 -0.13522083 0.10000000)
		(-0.16000000 -0.13522083 0.10000000)
		(-0.14000000 -0.13522083 0.10000000)
		(-0.12000000 -0.13522083 0.10000000)
		(-0.10000000 -0.13522083 0.10000000)
		(-0.08162011 -0.13570957 0.10000000)
		(-0.06324022 -0.13717579 0.10000000)
		(-0.04486034 -0.13961950 0.10000000)
		(-0.02648045 -0.14304068 0.10000000)
		(-0.00810056 -0.14743935 0.10000000)
		(0.01027933 -0.15281550 0.10000000)
		(0.02865922 -0.15916913 0.10000000)
		(0.04703911 -0.16650024 0.10000000)
		(0.06541899 -0.17480883 0.10000000)
		(0.08379888 -0.18409490 0.10000000)
		(0.10055866 -0.19251686 0.10000000)
		(0.11731844 -0.20043341 0.10000000)
		(0.13407821 -0.20782375 0.10000000)
		(0.15083799 -0.21466850 0.10000000)
		(0.16759777 -0.22094968 0.10000000)
		(0.18435754 -0.22665079 0.10000000)
		(0.20111732 -0.23175688 0.10000000)
		(0.21787709 -0.23625454 0.10000000)
		(0.23463687 -0.24013196 0.10000000)
		(0.25139665 -0.24337895 0.10000000)
		(0.26815642 -0.24598701 0.10000000)
		(0.28491620 -0.24794927 0.10000000)
		(0.30167598 -0.24926059 0.10000000)
		(0.31843575 -0.24991753 0.10000000)
		(0.33519553 -0.24991836 0.10000000)
		(0.35195531 -0.24926308 0.10000000)
		(0.36871508 -0.24795340 0.10000000)
		(0.38547486 -0.24599277 0.10000000)
		(0.40223464 -0.24338634 0.10000000)
		(0.41899441 -0.24014094 0.10000000)
		(0.43575419 -0.23626510 0.10000000)
		(0.45251397 -0.23176900 0.10000000)
		(0.46927374 -0.22666443 0.10000000)
		(0.48603352 -0.22096479 0.10000000)
		(0.50279330 -0.21468506 0.10000000)
		(0.51955307 -0.20784171 0.10000000)
		(0.53631285 -0.20045272 0.10000000)
		(0.55307263 -0.19253748 0.10000000)
		(0.56983240 -0.18411677 0.10000000)
		(0.58659218 -0.17521269 0.10000000)
		(0.60335196 -0.16584863 0.10000000)
		(0.62011173 -0.15604917 0.10000000)
		(0.63687151 -0.14584002 0.10000000)
		(0.65363128 -0.13524801 0.10000000)
		(0.67039106 -0.12430093 0.10000000)
		(0.68715084 -0.11302752 0.10000000)
		(0.70391061 -0.10145738 0.10000000)
		(0.72067039 -0.08962088 0.10000000)
		(0.73743017 -0.07754910 0.10000000)
		(0.75418994 -0.06527373 0.10000000)
		(0.77094972 -0.05282700 0.10000000)
		(0.78770950 -0.04024158 0.10000000)
		(0.80446927 -0.02755051 0.10000000)
		(0.82122905 -0.01478712 0.10000000)
		(0.83798883 -0.00198490 0.10000000)
		(0.85474860 0.01082252 0.10000000)
		(0.87150838 0.02360154 0.10000000)
		(0.88826816 0.03631859 0.10000000)
		(0.90502793 0.04894029 0.10000000)
		(0.92178771 0.06143352 0.10000000)
		(0.93854749 0.07376546 0.10000000)
		(0.95530726 0.08590374 0.10000000)
		(0.97206704 0.09781650 0.10000000)
		(0.98882682 0.10947246 0.10000000)
		(1.00558659 0.12084103 0.10000000)
		(1.02234637 0.13189235 0.10000000)
		(1.03910615 0.14259741 0.10000000)
		(1.05586592 0.15292811 0.10000000)
		(1.07262570 0.16285733 0.10000000)
		(1.08938547 0.17235900 0.10000000)
		(1.10614525 0.18140817 0.10000000)
		(1.12290503 0.18998109 0.10000000)
		(1.13966480 0.19805525 0.10000000)
		(1.15642458 0.20560946 0.10000000)
		(1.17318436 0.21262389 0.10000000)
		(1.18994413 0.21908011 0.10000000)
		(1.20670391 0.22496117 0.10000000)
		(1.22346369 0.23025165 0.10000000)
		(1.24022346 0.23493765 0.10000000)
		(1.25698324 0.23900686 0.10000000)
		(1.27374302 0.24244861 0.10000000)
		(1.29050279 0.24525385 0.10000000)
		(1.30726257 0.24741524 0.10000000)
		(1.32402235 0.24892708 0.10000000)
		(1.34078212 0.24978541 0.10000000)
		(1.35754190 0.24998798 0.10000000)
		(1.37430168 0.24953425 0.10000000)
		(1.39106145 0.24842543 0.10000000)
		(1.40782123 0.24666441 0.10000000)
		(1.42458101 0.24425582 0.10000000)
		(1.44134078 0.24120598 0.10000000)
		(1.45810056 0.23752291 0.10000000)
		(1.47486034 0.23321627 0.10000000)
		(1.49162011 0.22829736 0.10000000)
		(1.50837989 0.22277910 0.10000000)
		(1.52513966 0.21667599 0.10000000)
		(1.54189944 0.21000403 0.10000000)
		(1.55865922 0.20278074 0.10000000)
		(1.57541899 0.19502510 0.10000000)
		(1.59217877 0.18675745 0.10000000)
		(1.60893855 0.17799952 0.10000000)
		(1.62569832 0.16877427 0.10000000)
		(1.64245810 0.15910595 0.10000000)
		(1.65921788 0.14901992 0.10000000)
		(1.67597765 0.13854267 0.10000000)
		(1.69273743 0.12770171 0.10000000)
		(1.70949721 0.11652548 0.10000000)
		(1.72625698 0.10504335 0.10000000)
		(1.74301676 0.09328544 0.10000000)
		(1.75977654 0.08128263 0.10000000)
		(1.77653631 0.06906643 0.10000000)
		(1.79329609 0.05666891 0.10000000)
		(1.81005587 0.04412261 0.10000000)
		(1.82681564 0.03146048 0.10000000)
		(1.84357542 0.01871576 0.10000000)
		(1.86033520 0.00592190 0.10000000)
		(1.87709497 -0.00688750 0.10000000)
		(1.89385475 -0.01967883 0.10000000)
		(1.91061453 -0.03241849 0.10000000)
		(1.92737430 -0.04507304 0.10000000)
		(1.94413408 -0.05760926 0.10000000)
		(1.96089385 -0.06999424 0.10000000)
		(1.97765363 -0.08219546 0.10000000)
		(1.99441341 -0.09418090 0.10000000)
		(2.01117318 -0.10591908 0.10000000)
		(2.02793296 -0.11737919 0.10000000)
		(2.04469274 -0.12853115 0.10000000)
		(2.06145251 -0.13934567 0.10000000)
		(2.07821229 -0.14979437 0.10000000)
		(2.09497207 -0.15984981 0.10000000)
		(2.11173184 -0.16948560 0.10000000)
		(2.12849162 -0.17867643 0.10000000)
		(2.14525140 -0.18739819 0.10000000)
		(2.16201117 -0.19562797 0.10000000)
		(2.17877095 -0.20334417 0.10000000)
		(2.19553073 -0.21052653 0.10000000)
		(2.21229050 -0.21715619 0.10000000)
		(2.22905028 -0.22321575 0.10000000)
		(2.24581006 -0.22868930 0.10000000)
		(2.26256983 -0.23356247 0.10000000)
		(2.27932961 -0.23782247 0.10000000)
		(2.29608939 -0.24145812 0.10000000)
		(2.31284916 -0.24445986 0.10000000)
		(2.32960894 -0.24681982 0.10000000)
		(2.34636872 -0.24853181 0.10000000)
		(2.36312849 -0.24959132 0.10000000)
		(2.37988827 -0.24999558 0.10000000)
		(2.39664804 -0.24974353 0.10000000)
		(2.41340782 -0.24883583 0.10000000)
		(2.43016760 -0.24727485 0.10000000)
		(2.44692737 -0.24506470 0.10000000)
		(2.46368715 -0.24221119 0.10000000)
		(2.48044693 -0.23872179 0.10000000)
		(2.49720670 -0.23460568 0.10000000)
		(2.51396648 -0.22987366 0.10000000)
		(2.53072626 -0.22453815 0.10000000)
		(2.54748603 -0.21861316 0.10000000)
		(2.56424581 -0.21211424 0.10000000)
		(2.58100559 -0.20505846 0.10000000)
		(2.59776536 -0.19746434 0.10000000)
		(2.61452514 -0.18935182 0.10000000)
		(2.63128492 -0.18074219 0.10000000)
		(2.64804469 -0.17165805 0.10000000)
		(2.66480447 -0.16212326 0.10000000)
		(2.68156425 -0.15216285 0.10000000)
		(2.69832402 -0.14180297 0.10000000)
		(2.71508380 -0.13107080 0.10000000)
		(2.73184358 -0.11999454 0.10000000)
		(2.74860335 -0.10860326 0.10000000)
		(2.76536313 -0.09692686 0.10000000)
		(2.78212291 -0.08499600 0.10000000)
		(2.79888268 -0.07284199 0.10000000)
		(2.81564246 -0.06049676 0.10000000)
		(2.83240223 -0.04799270 0.10000000)
		(2.84916201 -0.03536265 0.10000000)
		(2.86592179 -0.02263976 0.10000000)
		(2.88268156 -0.00985743 0.10000000)
		(2.89944134 0.00295077 0.10000000)
		(2.91620112 0.01575123 0.10000000)
		(2.93296089 0.02851034 0.10000000)
		(2.95166480 0.03800207 0.10000000)
		(2.97036872 0.04649466 0.10000000)
		(2.98907263 0.05398813 0.10000000)
		(3.00777654 0.06048247 0.10000000)
		(3.02648045 0.06597768 0.10000000)
		(3.04518436 0.07047376 0.10000000)
		(3.06388827 0.07397071 0.10000000)
		(3.08259218 0.07646853 0.10000000)
		(3.10129609 0.07796723 0.10000000)
		(3.12000000 0.07846679 0.10000000)
		(3.14000000 0.07846679 0.10000000)
		(3.16000000 0.07846679 0.10000000)
		(3.18000000 0.07846679 0.10000000)
		(3.20000000 0.07846679 0.10000000)
		(3.22000000 0.07846679 0.10000000)
		(3.24000000 0.07846679 0.10000000)
		(3.26000000 0.07846679 0.10000000)
		(3.28000000 0.07846679 0.10000000)
		(3.30000000 0.07846679 0.10000000)
		(3.32000000 0.07846679 0.10000000)
		(3.34000000 0.07846679 0.10000000)
		(3.36000000 0.07846679 0.10000000)
		(3.38000000 0.07846679 0.10000000)
		(3.40000000 0.07846679 0.10000000)
		(3.42000000 0.07846679 0.10000000)
		(3.44000000 0.07846679 0.10000000)
		(3.46000000 0.07846679 0.10000000)
		(3.48000000 0.07846679 0.10000000)
		(3.50000000 0.07846679 0.10000000)
		(3.52000000 0.07846679 0.10000000)
		(3.54000000 0.07846679 0.10000000)
		(3.56000000 0.07846679 0.10000000)
		(3.58000000 0.07846679 0.10000000)
		(3.60000000 0.07846679 0.10000000)
		(3.62000000 0.07846679 0.10000000)
		(3.64000000 0.07846679 0.10000000)
		(3.66000000 0.07846679 0.10000000)
		(3.68000000 0.07846679 0.10000000)
		(3.70000000 0.07846679 0.10000000)
		(3.72000000 0.07846679 0.10000000)
		(3.74000000 0.07846679 0.10000000)
		(3.76000000 0.07846679 0.10000000)
		(3.78000000 0.07846679 0.10000000)
		(3.80000000 0.07846679 0.10000000)
		(3.82000000 0.07846679 0.10000000)
		(3.84000000 0.07846679 0.10000000)
		(3.86000000 0.07846679 0.10000000)
		(3.88000000 0.07846679 0.10000000)
		(3.90000000 0.07846679 0.10000000)
		(3.92000000 0.07846679 0.10000000)
		(3.94000000 0.07846679 0.10000000)
		(3.96000000 0.07846679 0.10000000)
		(3.98000000 0.07846679 0.10000000)
		(4.00000000 0.07846679 0.10000000)
	)
	polyLine 3 2
	(
		(-1.00000000 0.36477917 0.00000000)
		(-0.98000000 0.36465919 0.00000000)
		(-0.96000000 0.36453922 0.00000000)
		(-0.94000000 0.36441924 0.00000000)
		(-0.92000000 0.36429926 0.00000000)
		(-0.90000000 0.36417928 0.00000000)
		(-0.88000000 0.36405931 0.00000000)
		(-0.86000000 0.36393933 0.00000000)
		(-0.84000000 0.36381935 0.00000000)
		(-0.82000000 0.36369937 0.00000000)
		(-0.80000000 0.36357940 0.00000000)
		(-0.78000000 0.36345942 0.00000000)
		(-0.76000000 0.36333944 0.00000000)
		(-0.74000000 0.36321946 0.00000000)
		(-0.72000000 0.36309949 0.00000000)
		(-0.70000000 0.36297951 0.00000000)
		(-0.68000000 0.36285953 0.00000000)
		(-0.66000000 0.36273955 0.00000000)
		(-0.64000000 0.36261958 0.00000000)
		(-0.62000000 0.36249960 0.00000000)
		(-0.60000000 0.36237962 0.00000000)
		(-0.58000000 0.36225965 0.00000000)
		(-0.56000000 0.36213967 0.00000000)
		(-0.54000000 0.36201969 0.00000000)
		(-0.52000000 0.36189971 0.00000000)
		(-0.50000000 0.36177974 0.00000000)
		(-0.48000000 0.36165976 0.00000000)
		(-0.46000000 0.36153978 0.00000000)
		(-0.44000000 0.36141980 0.00000000)
		(-0.42000000 0.36129983 0.00000000)
		(-0.40000000 0.36117985 0.00000000)
		(-0.38000000 0.36105987 0.00000000)
		(-0.36000000 0.36093989 0.00000000)
		(-0.34000000 0.36081992 0.00000000)
		(-0.32000000 0.36069994 0.00000000)
		(-0.30000000 0.36057996 0.00000000)
		(-0.28000000 0.36045998 0.00000000)
		(-0.26000000 0.36034001 0.00000000)
		(-0.24000000 0.36022003 0.00000000)
		(-0.22000000 0.36010005 0.00000000)
		(-0.20000000 0.35998007 0.00000000)
		(-0.18000000 0.35986010 0.00000000)
		(-0.16000000 0.35974012 0.00000000)
		(-0.14000000 0.35962014 0.00000000)
		(-0.12000000 0.35950017 0.00000000)
		(-0.10000000 0.35938019 0.00000000)
		(-0.08162011 0.35963779 0.00000000)
		(-0.06324022 0.35869418 0.00000000)
		(-0.04486034 0.35654934 0.00000000)
		(-0.02648045 0.35320328 0.00000000)
		(-0.00810056 0.34865601 0.00000000)
		(0.01027933 0.34290752 0.00000000)
		(0.02865922 0.33595780 0.00000000)
		(0.04703911 0.32780687 0.00000000)
		(0.06541899 0.31845472 0.00000000)
		(0.08379888 0.30790134 0.00000000)
		(0.10055866 0.29911323 0.00000000)
		(0.11731844 0.29085250 0.00000000)
		(0.13407821 0.28314085 0.00000000)
		(0.15083799 0.27599852 0.00000000)
		(0.16759777 0.26944426 0.00000000)
		(0.18435754 0.26349528 0.00000000)
		(0.20111732 0.25816720 0.00000000)
		(0.21787709 0.25347400 0.00000000)
		(0.23463687 0.24942801 0.00000000)
		(0.25139665 0.24603985 0.00000000)
		(0.26815642 0.24331840 0.00000000)
		(0.28491620 0.24127083 0.00000000)
		(0.30167598 0.23990249 0.00000000)
		(0.31843575 0.23921700 0.00000000)
		(0.33519553 0.23921613 0.00000000)
		(0.35195531 0.23989990 0.00000000)
		(0.36871508 0.24126652 0.00000000)
		(0.38547486 0.24331239 0.00000000)
		(0.40223464 0.24603214 0.00000000)
		(0.41899441 0.24941863 0.00000000)
		(0.43575419 0.25346298 0.00000000)
		(0.45251397 0.25815456 0.00000000)
		(0.46927374 0.26348106 0.00000000)
		(0.48603352 0.26942849 0.00000000)
		(0.50279330 0.27598124 0.00000000)
		(0.51955307 0.28312211 0.00000000)
		(0.53631285 0.29083235 0.00000000)
		(0.55307263 0.29909172 0.00000000)
		(0.56983240 0.30787853 0.00000000)
		(0.58659218 0.31716972 0.00000000)
		(0.60335196 0.32694090 0.00000000)
		(0.62011173 0.33716640 0.00000000)
		(0.63687151 0.34781940 0.00000000)
		(0.65363128 0.35887192 0.00000000)
		(0.67039106 0.37029494 0.00000000)
		(0.68715084 0.38205847 0.00000000)
		(0.70391061 0.39413164 0.00000000)
		(0.72067039 0.40648274 0.00000000)
		(0.73743017 0.41907936 0.00000000)
		(0.75418994 0.43188841 0.00000000)
		(0.77094972 0.44487628 0.00000000)
		(0.78770950 0.45800887 0.00000000)
		(0.80446927 0.47125169 0.00000000)
		(0.82122905 0.48456999 0.00000000)
		(0.83798883 0.49792880 0.00000000)
		(0.85474860 0.51129305 0.00000000)
		(0.87150838 0.52462764 0.00000000)
		(0.88826816 0.53789758 0.00000000)
		(0.90502793 0.55106803 0.00000000)
		(0.92178771 0.56410441 0.00000000)
		(0.93854749 0.57697250 0.00000000)
		(0.95530726 0.58963851 0.00000000)
		(0.97206704 0.60206919 0.00000000)
		(0.98882682 0.61423191 0.00000000)
		(1.00558659 0.62609474 0.00000000)
		(1.02234637 0.63762653 0.00000000)
		(1.03910615 0.64879701 0.00000000)
		(1.05586592 0.65957685 0.00000000)
		(1.07262570 0.66993775 0.00000000)
		(1.08938547 0.67985252 0.00000000)
		(1.10614525 0.68929511 0.00000000)
		(1.12290503 0.69824075 0.00000000)
		(1.13966480 0.70666595 0.00000000)
		(1.15642458 0.71454859 0.00000000)
		(1.17318436 0.72186797 0.00000000)
		(1.18994413 0.72860488 0.00000000)
		(1.20670391 0.73474164 0.00000000)
		(1.22346369 0.74026212 0.00000000)
		(1.24022346 0.74515185 0.00000000)
		(1.25698324 0.74939798 0.00000000)
		(1.27374302 0.75298936 0.00000000)
		(1.29050279 0.75591657 0.00000000)
		(1.30726257 0.75817192 0.00000000)
		(1.32402235 0.75974949 0.00000000)
		(1.34078212 0.76064514 0.00000000)
		(1.35754190 0.76085651 0.00000000)
		(1.37430168 0.76038306 0.00000000)
		(1.39106145 0.75922603 0.00000000)
		(1.40782123 0.75738845 0.00000000)
		(1.42458101 0.75487514 0.00000000)
		(1.44134078 0.75169271 0.00000000)
		(1.45810056 0.74784951 0.00000000)
		(1.47486034 0.74335563 0.00000000)
		(1.49162011 0.73822287 0.00000000)
		(1.50837989 0.73246470 0.00000000)
		(1.52513966 0.72609624 0.00000000)
		(1.54189944 0.71913421 0.00000000)
		(1.55865922 0.71159689 0.00000000)
		(1.57541899 0.70350406 0.00000000)
		(1.59217877 0.69487697 0.00000000)
		(1.60893855 0.68573826 0.00000000)
		(1.62569832 0.67611194 0.00000000)
		(1.64245810 0.66602328 0.00000000)
		(1.65921788 0.65549875 0.00000000)
		(1.67597765 0.64456599 0.00000000)
		(1.69273743 0.63325369 0.00000000)
		(1.70949721 0.62159157 0.00000000)
		(1.72625698 0.60961024 0.00000000)
		(1.74301676 0.59734114 0.00000000)
		(1.75977654 0.58481649 0.00000000)
		(1.77653631 0.57206918 0.00000000)
		(1.79329609 0.55913266 0.00000000)
		(1.81005587 0.54604090 0.00000000)
		(1.82681564 0.53282827 0.00000000)
		(1.84357542 0.51952945 0.00000000)
		(1.86033520 0.50617936 0.00000000)
		(1.87709497 0.49281305 0.00000000)
		(1.89385475 0.47946561 0.00000000)
		(1.91061453 0.46617208 0.00000000)
		(1.92737430 0.45296736 0.00000000)
		(1.94413408 0.43988611 0.00000000)
		(1.96089385 0.42696268 0.00000000)
		(1.97765363 0.41423099 0.00000000)
		(1.99441341 0.40172447 0.00000000)
		(2.01117318 0.38947596 0.00000000)
		(2.02793296 0.37751761 0.00000000)
		(2.04469274 0.36588080 0.00000000)
		(2.06145251 0.35459611 0.00000000)
		(2.07821229 0.34369314 0.00000000)
		(2.09497207 0.33320052 0.00000000)
		(2.11173184 0.32314581 0.00000000)
		(2.12849162 0.31355539 0.00000000)
		(2.14525140 0.30445444 0.00000000)
		(2.16201117 0.29586686 0.00000000)
		(2.17877095 0.28781519 0.00000000)
		(2.19553073 0.28032057 0.00000000)
		(2.21229050 0.27340268 0.00000000)
		(2.22905028 0.26707967 0.00000000)
		(2.24581006 0.26136815 0.00000000)
		(2.26256983 0.25628311 0.00000000)
		(2.27932961 0.25183790 0.00000000)
		(2.29608939 0.24804419 0.00000000)
		(2.31284916 0.24491194 0.00000000)
		(2.32960894 0.24244938 0.00000000)
		(2.34636872 0.24066296 0.00000000)
		(2.36312849 0.23955738 0.00000000)
		(2.37988827 0.23913555 0.00000000)
		(2.39664804 0.23939856 0.00000000)
		(2.41340782 0.24034573 0.00000000)
		(2.43016760 0.24197457 0.00000000)
		(2.44692737 0.24428081 0.00000000)
		(2.46368715 0.24725838 0.00000000)
		(2.48044693 0.25089948 0.00000000)
		(2.49720670 0.25519454 0.00000000)