/*--------------------------------*- C++ -*----------------------------------*\\
/*--------------------------------*- C++ -*----------------------------------*\\
| =========                 |                                                 |
| \\\\      /  F ield         | OpenFOAM: The Open Source CFD Toolbox           |
|  \\\\    /   O peration     | Version:  v2012                                 |
|   \\\\  /    A nd           | Website:  www.openfoam.com                      |
|    \\\\/     M anipulation  |                                                 |
\\*---------------------------------------------------------------------------*/
FoamFile
{
    version     2.0;
    format      ascii;
    class       dictionary;
    object      blockMeshDict;
}
// * * * * * * * * * * * * * * * * * * * * * * * * * * * * * * * * * * * * * //

scale   0.01;

xmin -1;
xmax 5;
ymin 0;
ymax 0.5;
zmin 0;
zmax 0.1;

vertices
(
    (-1.00000000 0.05397243 0.00000000)
    (4.00000000 -0.01171587 0.00000000)
    (4.00000000 0.48828413 0.00000000)
    (-1.00000000 0.55397243 0.00000000)
    (-1.00000000 0.05397243 0.10000000)
    (4.00000000 -0.01171587 0.10000000)
    (4.00000000 0.48828413 0.10000000)
    (-1.00000000 0.55397243 0.10000000)
);

blocks
(
    hex (0 1 2 3 4 5 6 7) (200 20 1) simpleGrading (1 1 1)
);

edges
(
	polyLine 0 1
	(
		(-1.00000000 0.05397243 0.00000000)
		(-0.98000000 0.05397243 0.00000000)
		(-0.96000000 0.05397243 0.00000000)
		(-0.94000000 0.05397243 0.00000000)
		(-0.92000000 0.05397243 0.00000000)
		(-0.90000000 0.05397243 0.00000000)
		(-0.88000000 0.05397243 0.00000000)
		(-0.86000000 0.05397243 0.00000000)
		(-0.84000000 0.05397243 0.00000000)
		(-0.82000000 0.05397243 0.00000000)
		(-0.80000000 0.05397243 0.00000000)
		(-0.78000000 0.05397243 0.00000000)
		(-0.76000000 0.05397243 0.00000000)
		(-0.74000000 0.05397243 0.00000000)
		(-0.72000000 0.05397243 0.00000000)
		(-0.70000000 0.05397243 0.00000000)
		(-0.68000000 0.05397243 0.00000000)
		(-0.66000000 0.05397243 0.00000000)
		(-0.64000000 0.05397243 0.00000000)
		(-0.62000000 0.05397243 0.00000000)
		(-0.60000000 0.05397243 0.00000000)
		(-0.58000000 0.05397243 0.00000000)
		(-0.56000000 0.05397243 0.00000000)
		(-0.54000000 0.05397243 0.00000000)
		(-0.52000000 0.05397243 0.00000000)
		(-0.50000000 0.05397243 0.00000000)
		(-0.48000000 0.05397243 0.00000000)
		(-0.46000000 0.05397243 0.00000000)
		(-0.44000000 0.05397243 0.00000000)
		(-0.42000000 0.05397243 0.00000000)
		(-0.40000000 0.05397243 0.00000000)
		(-0.38000000 0.05397243 0.00000000)
		(-0.36000000 0.05397243 0.00000000)
		(-0.34000000 0.05397243 0.00000000)
		(-0.32000000 0.05397243 0.00000000)
		(-0.30000000 0.05397243 0.00000000)
		(-0.28000000 0.05397243 0.00000000)
		(-0.26000000 0.05397243 0.00000000)
		(-0.24000000 0.05397243 0.00000000)
		(-0.22000000 0.05397243 0.00000000)
		(-0.20000000 0.05397243 0.00000000)
		(-0.18000000 0.05397243 0.00000000)
		(-0.16000000 0.05397243 0.00000000)
		(-0.14000000 0.05397243 0.00000000)
		(-0.12000000 0.05397243 0.00000000)
		(-0.10000000 0.05397243 0.00000000)
		(-0.08162011 0.05476328 0.00000000)
		(-0.06324022 0.05713582 0.00000000)
		(-0.04486034 0.06109006 0.00000000)
		(-0.02648045 0.06662599 0.00000000)
		(-0.00810056 0.07374362 0.00000000)
		(0.01027933 0.08244295 0.00000000)
		(0.02865922 0.09272397 0.00000000)
		(0.04703911 0.10458669 0.00000000)
		(0.06541899 0.11803110 0.00000000)
		(0.08379888 0.13305721 0.00000000)
		(0.10055866 0.14727744 0.00000000)
		(0.11731844 0.16080233 0.00000000)
		(0.13407821 0.17356801 0.00000000)
		(0.15083799 0.18551422 0.00000000)
		(0.16759777 0.19658454 0.00000000)
		(0.18435754 0.20672673 0.00000000)
		(0.20111732 0.21589288 0.00000000)
		(0.21787709 0.22403973 0.00000000)
		(0.23463687 0.23112880 0.00000000)
		(0.25139665 0.23712664 0.00000000)
		(0.26815642 0.24200492 0.00000000)
		(0.28491620 0.24574060 0.00000000)
		(0.30167598 0.24831606 0.00000000)
		(0.31843575 0.24971913 0.00000000)
		(0.33519553 0.24994319 0.00000000)
		(0.35195531 0.24898718 0.00000000)
		(0.36871508 0.24685561 0.00000000)
		(0.38547486 0.24355855 0.00000000)
		(0.40223464 0.23911156 0.00000000)
		(0.41899441 0.23353565 0.00000000)
		(0.43575419 0.22685713 0.00000000)
		(0.45251397 0.21910753 0.00000000)
		(0.46927374 0.21032346 0.00000000)
		(0.48603352 0.20054637 0.00000000)
		(0.50279330 0.18982243 0.00000000)
		(0.51955307 0.17820227 0.00000000)
		(0.53631285 0.16574076 0.00000000)
		(0.55307263 0.15249673 0.00000000)
		(0.56983240 0.13853270 0.00000000)
		(0.58659218 0.12391462 0.00000000)
		(0.60335196 0.10871148 0.00000000)
		(0.62011173 0.09299509 0.00000000)
		(0.63687151 0.07683963 0.00000000)
		(0.65363128 0.06032138 0.00000000)
		(0.67039106 0.04351834 0.00000000)
		(0.68715084 0.02650983 0.00000000)
		(0.70391061 0.00937616 0.00000000)
		(0.72067039 -0.00780178 0.00000000)
		(0.73743017 -0.02494289 0.00000000)
		(0.75418994 -0.04196623 0.00000000)
		(0.77094972 -0.05879143 0.00000000)
		(0.78770950 -0.07533906 0.00000000)
		(0.80446927 -0.09153099 0.00000000)
		(0.82122905 -0.10729076 0.00000000)
		(0.83798883 -0.12254398 0.00000000)
		(0.85474860 -0.13721863 0.00000000)
		(0.87150838 -0.15124541 0.00000000)
		(0.88826816 -0.16455812 0.00000000)
		(0.90502793 -0.17709389 0.00000000)
		(0.92178771 -0.18879353 0.00000000)
		(0.93854749 -0.19960181 0.00000000)
		(0.95530726 -0.20946771 0.00000000)
		(0.97206704 -0.21834463 0.00000000)
		(0.98882682 -0.22619067 0.00000000)
		(1.00558659 -0.23296879 0.00000000)
		(1.02234637 -0.23864697 0.00000000)
		(1.03910615 -0.24319842 0.00000000)
		(1.05586592 -0.24660165 0.00000000)
		(1.07262570 -0.24884058 0.00000000)
		(1.08938547 -0.24990465 0.00000000)
		(1.10614525 -0.24978882 0.00000000)
		(1.12290503 -0.24849366 0.00000000)
		(1.13966480 -0.24602527 0.00000000)
		(1.15642458 -0.24239531 0.00000000)
		(1.17318436 -0.23762092 0.00000000)
		(1.18994413 -0.23172463 0.00000000)
		(1.20670391 -0.22473429 0.00000000)
		(1.22346369 -0.21668290 0.00000000)
		(1.24022346 -0.20760847 0.00000000)
		(1.25698324 -0.19755386 0.00000000)
		(1.27374302 -0.18656651 0.00000000)
		(1.29050279 -0.17469833 0.00000000)
		(1.30726257 -0.16200533 0.00000000)
		(1.32402235 -0.14854744 0.00000000)
		(1.34078212 -0.13438821 0.00000000)
		(1.35754190 -0.11959449 0.00000000)
		(1.37430168 -0.10423612 0.00000000)
		(1.39106145 -0.08838561 0.00000000)
		(1.40782123 -0.07211781 0.00000000)
		(1.42458101 -0.05550951 0.00000000)
		(1.44134078 -0.03863913 0.00000000)
		(1.45810056 -0.02158632 0.00000000)
		(1.47486034 -0.00443159 0.00000000)
		(1.49162011 0.01274406 0.00000000)
		(1.50837989 0.02985953 0.00000000)
		(1.52513966 0.04683404 0.00000000)
		(1.54189944 0.06358742 0.00000000)
		(1.55865922 0.08004058 0.00000000)
		(1.57541899 0.09611584 0.00000000)
		(1.59217877 0.11173731 0.00000000)
		(1.60893855 0.12683123 0.00000000)
		(1.62569832 0.14132633 0.00000000)
		(1.64245810 0.15515418 0.00000000)
		(1.65921788 0.16824949 0.00000000)
		(1.67597765 0.18055043 0.00000000)
		(1.69273743 0.19199894 0.00000000)
		(1.70949721 0.20254095 0.00000000)
		(1.72625698 0.21212669 0.00000000)
		(1.74301676 0.22071090 0.00000000)
		(1.75977654 0.22825307 0.00000000)
		(1.77653631 0.23471757 0.00000000)
		(1.79329609 0.24007388 0.00000000)
		(1.81005587 0.24429672 0.00000000)
		(1.82681564 0.24736615 0.00000000)
		(1.84357542 0.24926768 0.00000000)
		(1.86033520 0.24999233 0.00000000)
		(1.87709497 0.24953667 0.00000000)
		(1.89385475 0.24790287 0.00000000)
		(1.91061453 0.24509862 0.00000000)
		(1.92737430 0.24113718 0.00000000)
		(1.94413408 0.23603725 0.00000000)
		(1.96089385 0.22982290 0.00000000)
		(1.97765363 0.22252348 0.00000000)
		(1.99441341 0.21417344 0.00000000)
		(2.01117318 0.20481222 0.00000000)
		(2.02793296 0.19448400 0.00000000)
		(2.04469274 0.18323756 0.00000000)
		(2.06145251 0.17112599 0.00000000)
		(2.07821229 0.15820647 0.00000000)
		(2.09497207 0.14454001 0.00000000)
		(2.11173184 0.13019112 0.00000000)
		(2.12849162 0.11522755 0.00000000)
		(2.14525140 0.09971995 0.00000000)
		(2.16201117 0.08374154 0.00000000)
		(2.17877095 0.06736775 0.00000000)
		(2.19553073 0.05067590 0.00000000)
		(2.21229050 0.03374479 0.00000000)
		(2.22905028 0.01665436 0.00000000)
		(2.24581006 -0.00051471 0.00000000)
		(2.26256983 -0.01768134 0.00000000)
		(2.27932961 -0.03476449 0.00000000)
		(2.29608939 -0.05168351 0.00000000)
		(2.31284916 -0.06835851 0.00000000)
		(2.32960894 -0.08471077 0.00000000)
		(2.34636872 -0.10066308 0.00000000)
		(2.36312849 -0.11614012 0.00000000)
		(2.37988827 -0.13106882 0.00000000)
		(2.39664804 -0.14537870 0.00000000)
		(2.41340782 -0.15900220 0.00000000)
		(2.43016760 -0.17187499 0.00000000)
		(2.44692737 -0.18393630 0.00000000)
		(2.46368715 -0.19512918 0.00000000)
		(2.48044693 -0.20540079 0.00000000)
		(2.49720670 -0.21470262 0.00000000)
		(2.51396648 -0.22299077 0.00000000)
		(2.53072626 -0.23022611 0.00000000)
		(2.54748603 -0.23637446 0.00000000)
		(2.56424581 -0.24140681 0.00000000)
		(2.58100559 -0.24529939 0.00000000)
		(2.59776536 -0.24803382 0.00000000)
		(2.61452514 -0.24959720 0.00000000)
		(2.63128492 -0.24998214 0.00000000)
		(2.64804469 -0.24918683 0.00000000)
		(2.66480447 -0.24721502 0.00000000)
		(2.68156425 -0.24407602 0.00000000)
		(2.69832402 -0.23978466 0.00000000)
		(2.71508380 -0.23436118 0.00000000)
		(2.73184358 -0.22783120 0.00000000)
		(2.74860335 -0.22022555 0.00000000)
		(2.76536313 -0.21158014 0.00000000)
		(2.78212291 -0.20193578 0.00000000)
		(2.79888268 -0.19133802 0.00000000)
		(2.81564246 -0.17983688 0.00000000)
		(2.83240223 -0.16748666 0.00000000)
		(2.84916201 -0.15434568 0.00000000)
		(2.86592179 -0.14047599 0.00000000)
		(2.88268156 -0.12594305 0.00000000)
		(2.89944134 -0.11081550 0.00000000)
		(2.91620112 -0.09516474 0.00000000)
		(2.93296089 -0.07906468 0.00000000)
		(2.95166480 -0.06626840 0.00000000)
		(2.97036872 -0.05481911 0.00000000)
		(2.98907263 -0.04471679 0.00000000)
		(3.00777654 -0.03596144 0.00000000)
		(3.02648045 -0.02855308 0.00000000)
		(3.04518436 -0.02249168 0.00000000)
		(3.06388827 -0.01777727 0.00000000)
		(3.08259218 -0.01440983 0.00000000)
		(3.10129609 -0.01238936 0.00000000)
		(3.12000000 -0.01171587 0.00000000)
		(3.14000000 -0.01171587 0.00000000)
		(3.16000000 -0.01171587 0.00000000)
		(3.18000000 -0.01171587 0.00000000)
		(3.20000000 -0.01171587 0.00000000)
		(3.22000000 -0.01171587 0.00000000)
		(3.24000000 -0.01171587 0.00000000)
		(3.26000000 -0.01171587 0.00000000)
		(3.28000000 -0.01171587 0.00000000)
		(3.30000000 -0.01171587 0.00000000)
		(3.32000000 -0.01171587 0.00000000)
		(3.34000000 -0.01171587 0.00000000)
		(3.36000000 -0.01171587 0.00000000)
		(3.38000000 -0.01171587 0.00000000)
		(3.40000000 -0.01171587 0.00000000)
		(3.42000000 -0.01171587 0.00000000)
		(3.44000000 -0.01171587 0.00000000)
		(3.46000000 -0.01171587 0.00000000)
		(3.48000000 -0.01171587 0.00000000)
		(3.50000000 -0.01171587 0.00000000)
		(3.52000000 -0.01171587 0.00000000)
		(3.54000000 -0.01171587 0.00000000)
		(3.56000000 -0.01171587 0.00000000)
		(3.58000000 -0.01171587 0.00000000)
		(3.60000000 -0.01171587 0.00000000)
		(3.62000000 -0.01171587 0.00000000)
		(3.64000000 -0.01171587 0.00000000)
		(3.66000000 -0.01171587 0.00000000)
		(3.68000000 -0.01171587 0.00000000)
		(3.70000000 -0.01171587 0.00000000)
		(3.72000000 -0.01171587 0.00000000)
		(3.74000000 -0.01171587 0.00000000)
		(3.76000000 -0.01171587 0.00000000)
		(3.78000000 -0.01171587 0.00000000)
		(3.80000000 -0.01171587 0.00000000)
		(3.82000000 -0.01171587 0.00000000)
		(3.84000000 -0.01171587 0.00000000)
		(3.86000000 -0.01171587 0.00000000)
		(3.88000000 -0.01171587 0.00000000)
		(3.90000000 -0.01171587 0.00000000)
		(3.92000000 -0.01171587 0.00000000)
		(3.94000000 -0.01171587 0.00000000)
		(3.96000000 -0.01171587 0.00000000)
		(3.98000000 -0.01171587 0.00000000)
		(4.00000000 -0.01171587 0.00000000)
	)
	polyLine 4 5
	(
		(-1.00000000 0.05397243 0.10000000)
		(-0.98000000 0.05397243 0.10000000)
		(-0.96000000 0.05397243 0.10000000)
		(-0.94000000 0.05397243 0.10000000)
		(-0.92000000 0.05397243 0.10000000)
		(-0.90000000 0.05397243 0.10000000)
		(-0.88000000 0.05397243 0.10000000)
		(-0.86000000 0.05397243 0.10000000)
		(-0.84000000 0.05397243 0.10000000)
		(-0.82000000 0.05397243 0.10000000)
		(-0.80000000 0.05397243 0.10000000)
		(-0.78000000 0.05397243 0.10000000)
		(-0.76000000 0.05397243 0.10000000)
		(-0.74000000 0.05397243 0.10000000)
		(-0.72000000 0.05397243 0.10000000)
		(-0.70000000 0.05397243 0.10000000)
		(-0.68000000 0.05397243 0.10000000)
		(-0.66000000 0.05397243 0.10000000)
		(-0.64000000 0.05397243 0.10000000)
		(-0.62000000 0.05397243 0.10000000)
		(-0.60000000 0.05397243 0.10000000)
		(-0.58000000 0.05397243 0.10000000)
		(-0.56000000 0.05397243 0.10000000)
		(-0.54000000 0.05397243 0.10000000)
		(-0.52000000 0.05397243 0.10000000)
		(-0.50000000 0.05397243 0.10000000)
		(-0.48000000 0.05397243 0.10000000)
		(-0.46000000 0.05397243 0.10000000)
		(-0.44000000 0.05397243 0.10000000)
		(-0.42000000 0.05397243 0.10000000)
		(-0.40000000 0.05397243 0.10000000)
		(-0.38000000 0.05397243 0.10000000)
		(-0.36000000 0.05397243 0.10000000)
		(-0.34000000 0.05397243 0.10000000)
		(-0.32000000 0.05397243 0.10000000)
		(-0.30000000 0.05397243 0.10000000)
		(-0.28000000 0.05397243 0.10000000)
		(-0.26000000 0.05397243 0.10000000)
		(-0.24000000 0.05397243 0.10000000)
		(-0.22000000 0.05397243 0.10000000)
		(-0.20000000 0.05397243 0.10000000)
		(-0.18000000 0.05397243 0.10000000)
		(-0.16000000 0.05397243 0.10000000)
		(-0.14000000 0.05397243 0.10000000)
		(-0.12000000 0.05397243 0.10000000)
		(-0.10000000 0.05397243 0.10000000)
		(-0.08162011 0.05476328 0.10000000)
		(-0.06324022 0.05713582 0.10000000)
		(-0.04486034 0.06109006 0.10000000)
		(-0.02648045 0.06662599 0.10000000)
		(-0.00810056 0.07374362 0.10000000)
		(0.01027933 0.08244295 0.10000000)
		(0.02865922 0.09272397 0.10000000)
		(0.04703911 0.10458669 0.10000000)
		(0.06541899 0.11803110 0.10000000)
		(0.08379888 0.13305721 0.10000000)
		(0.10055866 0.14727744 0.10000000)
		(0.11731844 0.16080233 0.10000000)
		(0.13407821 0.17356801 0.10000000)
		(0.15083799 0.18551422 0.10000000)
		(0.16759777 0.19658454 0.10000000)
		(0.18435754 0.20672673 0.10000000)
		(0.20111732 0.21589288 0.10000000)
		(0.21787709 0.22403973 0.10000000)
		(0.23463687 0.23112880 0.10000000)
		(0.25139665 0.23712664 0.10000000)
		(0.26815642 0.24200492 0.10000000)
		(0.28491620 0.24574060 0.10000000)
		(0.30167598 0.24831606 0.10000000)
		(0.31843575 0.24971913 0.10000000)
		(0.33519553 0.24994319 0.10000000)
		(0.35195531 0.24898718 0.10000000)
		(0.36871508 0.24685561 0.10000000)
		(0.38547486 0.24355855 0.10000000)
		(0.40223464 0.23911156 0.10000000)
		(0.41899441 0.23353565 0.10000000)
		(0.43575419 0.22685713 0.10000000)
		(0.45251397 0.21910753 0.10000000)
		(0.46927374 0.21032346 0.10000000)
		(0.48603352 0.20054637 0.10000000)
		(0.50279330 0.18982243 0.10000000)
		(0.51955307 0.17820227 0.10000000)
		(0.53631285 0.16574076 0.10000000)
		(0.55307263 0.15249673 0.10000000)
		(0.56983240 0.13853270 0.10000000)
		(0.58659218 0.12391462 0.10000000)
		(0.60335196 0.10871148 0.10000000)
		(0.62011173 0.09299509 0.10000000)
		(0.63687151 0.07683963 0.10000000)
		(0.65363128 0.06032138 0.10000000)
		(0.67039106 0.04351834 0.10000000)
		(0.68715084 0.02650983 0.10000000)
		(0.70391061 0.00937616 0.10000000)
		(0.72067039 -0.00780178 0.10000000)
		(0.73743017 -0.02494289 0.10000000)
		(0.75418994 -0.04196623 0.10000000)
		(0.77094972 -0.05879143 0.10000000)
		(0.78770950 -0.07533906 0.10000000)
		(0.80446927 -0.09153099 0.10000000)
		(0.82122905 -0.10729076 0.10000000)
		(0.83798883 -0.12254398 0.10000000)
		(0.85474860 -0.13721863 0.10000000)
		(0.87150838 -0.15124541 0.10000000)
		(0.88826816 -0.16455812 0.10000000)
		(0.90502793 -0.17709389 0.10000000)
		(0.92178771 -0.18879353 0.10000000)
		(0.93854749 -0.19960181 0.10000000)
		(0.95530726 -0.20946771 0.10000000)
		(0.97206704 -0.21834463 0.10000000)
		(0.98882682 -0.22619067 0.10000000)
		(1.00558659 -0.23296879 0.10000000)
		(1.02234637 -0.23864697 0.10000000)
		(1.03910615 -0.24319842 0.10000000)
		(1.05586592 -0.24660165 0.10000000)
		(1.07262570 -0.24884058 0.10000000)
		(1.08938547 -0.24990465 0.10000000)
		(1.10614525 -0.24978882 0.10000000)
		(1.12290503 -0.24849366 0.10000000)
		(1.13966480 -0.24602527 0.10000000)
		(1.15642458 -0.24239531 0.10000000)
		(1.17318436 -0.23762092 0.10000000)
		(1.18994413 -0.23172463 0.10000000)
		(1.20670391 -0.22473429 0.10000000)
		(1.22346369 -0.21668290 0.10000000)
		(1.24022346 -0.20760847 0.10000000)
		(1.25698324 -0.19755386 0.10000000)
		(1.27374302 -0.18656651 0.10000000)
		(1.29050279 -0.17469833 0.10000000)
		(1.30726257 -0.16200533 0.10000000)
		(1.32402235 -0.14854744 0.10000000)
		(1.34078212 -0.13438821 0.10000000)
		(1.35754190 -0.11959449 0.10000000)
		(1.37430168 -0.10423612 0.10000000)
		(1.39106145 -0.08838561 0.10000000)
		(1.40782123 -0.07211781 0.10000000)
		(1.42458101 -0.05550951 0.10000000)
		(1.44134078 -0.03863913 0.10000000)
		(1.45810056 -0.02158632 0.10000000)
		(1.47486034 -0.00443159 0.10000000)
		(1.49162011 0.01274406 0.10000000)
		(1.50837989 0.02985953 0.10000000)
		(1.52513966 0.04683404 0.10000000)
		(1.54189944 0.06358742 0.10000000)
		(1.55865922 0.08004058 0.10000000)
		(1.57541899 0.09611584 0.10000000)
		(1.59217877 0.11173731 0.10000000)
		(1.60893855 0.12683123 0.10000000)
		(1.62569832 0.14132633 0.10000000)
		(1.64245810 0.15515418 0.10000000)
		(1.65921788 0.16824949 0.10000000)
		(1.67597765 0.18055043 0.10000000)
		(1.69273743 0.19199894 0.10000000)
		(1.70949721 0.20254095 0.10000000)
		(1.72625698 0.21212669 0.10000000)
		(1.74301676 0.22071090 0.10000000)
		(1.75977654 0.22825307 0.10000000)
		(1.77653631 0.23471757 0.10000000)
		(1.79329609 0.24007388 0.10000000)
		(1.81005587 0.24429672 0.10000000)
		(1.82681564 0.24736615 0.10000000)
		(1.84357542 0.24926768 0.10000000)
		(1.86033520 0.24999233 0.10000000)
		(1.87709497 0.24953667 0.10000000)
		(1.89385475 0.24790287 0.10000000)
		(1.91061453 0.24509862 0.10000000)
		(1.92737430 0.24113718 0.10000000)
		(1.94413408 0.23603725 0.10000000)
		(1.96089385 0.22982290 0.10000000)
		(1.97765363 0.22252348 0.10000000)
		(1.99441341 0.21417344 0.10000000)
		(2.01117318 0.20481222 0.10000000)
		(2.02793296 0.19448400 0.10000000)
		(2.04469274 0.18323756 0.10000000)
		(2.06145251 0.17112599 0.10000000)
		(2.07821229 0.15820647 0.10000000)
		(2.09497207 0.14454001 0.10000000)
		(2.11173184 0.13019112 0.10000000)
		(2.12849162 0.11522755 0.10000000)
		(2.14525140 0.09971995 0.10000000)
		(2.16201117 0.08374154 0.10000000)
		(2.17877095 0.06736775 0.10000000)
		(2.19553073 0.05067590 0.10000000)
		(2.21229050 0.03374479 0.10000000)
		(2.22905028 0.01665436 0.10000000)
		(2.24581006 -0.00051471 0.10000000)
		(2.26256983 -0.01768134 0.10000000)
		(2.27932961 -0.03476449 0.10000000)
		(2.29608939 -0.05168351 0.10000000)
		(2.31284916 -0.06835851 0.10000000)
		(2.32960894 -0.08471077 0.10000000)
		(2.34636872 -0.10066308 0.10000000)
		(2.36312849 -0.11614012 0.10000000)
		(2.37988827 -0.13106882 0.10000000)
		(2.39664804 -0.14537870 0.10000000)
		(2.41340782 -0.15900220 0.10000000)
		(2.43016760 -0.17187499 0.10000000)
		(2.44692737 -0.18393630 0.10000000)
		(2.46368715 -0.19512918 0.10000000)
		(2.48044693 -0.20540079 0.10000000)
		(2.49720670 -0.21470262 0.10000000)
		(2.51396648 -0.22299077 0.10000000)
		(2.53072626 -0.23022611 0.10000000)
		(2.54748603 -0.23637446 0.10000000)
		(2.56424581 -0.24140681 0.10000000)
		(2.58100559 -0.24529939 0.10000000)
		(2.59776536 -0.24803382 0.10000000)
		(2.61452514 -0.24959720 0.10000000)
		(2.63128492 -0.24998214 0.10000000)
		(2.64804469 -0.24918683 0.10000000)
		(2.66480447 -0.24721502 0.10000000)
		(2.68156425 -0.24407602 0.10000000)
		(2.69832402 -0.23978466 0.10000000)
		(2.71508380 -0.23436118 0.10000000)
		(2.73184358 -0.22783120 0.10000000)
		(2.74860335 -0.22022555 0.10000000)
		(2.76536313 -0.21158014 0.10000000)
		(2.78212291 -0.20193578 0.10000000)
		(2.79888268 -0.19133802 0.10000000)
		(2.81564246 -0.17983688 0.10000000)
		(2.83240223 -0.16748666 0.10000000)
		(2.84916201 -0.15434568 0.10000000)
		(2.86592179 -0.14047599 0.10000000)
		(2.88268156 -0.12594305 0.10000000)
		(2.89944134 -0.11081550 0.10000000)
		(2.91620112 -0.09516474 0.10000000)
		(2.93296089 -0.07906468 0.10000000)
		(2.95166480 -0.06626840 0.10000000)
		(2.97036872 -0.05481911 0.10000000)
		(2.98907263 -0.04471679 0.10000000)
		(3.00777654 -0.03596144 0.10000000)
		(3.02648045 -0.02855308 0.10000000)
		(3.04518436 -0.02249168 0.10000000)
		(3.06388827 -0.01777727 0.10000000)
		(3.08259218 -0.01440983 0.10000000)
		(3.10129609 -0.01238936 0.10000000)
		(3.12000000 -0.01171587 0.10000000)
		(3.14000000 -0.01171587 0.10000000)
		(3.16000000 -0.01171587 0.10000000)
		(3.18000000 -0.01171587 0.10000000)
		(3.20000000 -0.01171587 0.10000000)
		(3.22000000 -0.01171587 0.10000000)
		(3.24000000 -0.01171587 0.10000000)
		(3.26000000 -0.01171587 0.10000000)
		(3.28000000 -0.01171587 0.10000000)
		(3.30000000 -0.01171587 0.10000000)
		(3.32000000 -0.01171587 0.10000000)
		(3.34000000 -0.01171587 0.10000000)
		(3.36000000 -0.01171587 0.10000000)
		(3.38000000 -0.01171587 0.10000000)
		(3.40000000 -0.01171587 0.10000000)
		(3.42000000 -0.01171587 0.10000000)
		(3.44000000 -0.01171587 0.10000000)
		(3.46000000 -0.01171587 0.10000000)
		(3.48000000 -0.01171587 0.10000000)
		(3.50000000 -0.01171587 0.10000000)
		(3.52000000 -0.01171587 0.10000000)
		(3.54000000 -0.01171587 0.10000000)
		(3.56000000 -0.01171587 0.10000000)
		(3.58000000 -0.01171587 0.10000000)
		(3.60000000 -0.01171587 0.10000000)
		(3.62000000 -0.01171587 0.10000000)
		(3.64000000 -0.01171587 0.10000000)
		(3.66000000 -0.01171587 0.10000000)
		(3.68000000 -0.01171587 0.10000000)
		(3.70000000 -0.01171587 0.10000000)
		(3.72000000 -0.01171587 0.10000000)
		(3.74000000 -0.01171587 0.10000000)
		(3.76000000 -0.01171587 0.10000000)
		(3.78000000 -0.01171587 0.10000000)
		(3.80000000 -0.01171587 0.10000000)
		(3.82000000 -0.01171587 0.10000000)
		(3.84000000 -0.01171587 0.10000000)
		(3.86000000 -0.01171587 0.10000000)
		(3.88000000 -0.01171587 0.10000000)
		(3.90000000 -0.01171587 0.10000000)
		(3.92000000 -0.01171587 0.10000000)
		(3.94000000 -0.01171587 0.10000000)
		(3.96000000 -0.01171587 0.10000000)
		(3.98000000 -0.01171587 0.10000000)
		(4.00000000 -0.01171587 0.10000000)
	)
	polyLine 3 2
	(
		(-1.00000000 0.55397243 0.00000000)
		(-0.98000000 0.55347544 0.00000000)
		(-0.96000000 0.55297845 0.00000000)
		(-0.94000000 0.55248145 0.00000000)
		(-0.92000000 0.55198446 0.00000000)
		(-0.90000000 0.55148747 0.00000000)
		(-0.88000000 0.55099048 0.00000000)
		(-0.86000000 0.55049349 0.00000000)
		(-0.84000000 0.54999650 0.00000000)
		(-0.82000000 0.54949950 0.00000000)
		(-0.80000000 0.54900251 0.00000000)
		(-0.78000000 0.54850552 0.00000000)
		(-0.76000000 0.54800853 0.00000000)
		(-0.74000000 0.54751154 0.00000000)
		(-0.72000000 0.54701455 0.00000000)
		(-0.70000000 0.54651755 0.00000000)
		(-0.68000000 0.54602056 0.00000000)
		(-0.66000000 0.54552357 0.00000000)
		(-0.64000000 0.54502658 0.00000000)
		(-0.62000000 0.54452959 0.00000000)
		(-0.60000000 0.54403260 0.00000000)
		(-0.58000000 0.54353561 0.00000000)
		(-0.56000000 0.54303861 0.00000000)
		(-0.54000000 0.54254162 0.00000000)
		(-0.52000000 0.54204463 0.00000000)
		(-0.50000000 0.54154764 0.00000000)
		(-0.48000000 0.54105065 0.00000000)
		(-0.46000000 0.54055366 0.00000000)
		(-0.44000000 0.54005666 0.00000000)
		(-0.42000000 0.53955967 0.00000000)
		(-0.40000000 0.53906268 0.00000000)
		(-0.38000000 0.53856569 0.00000000)
		(-0.36000000 0.53806870 0.00000000)
		(-0.34000000 0.53757171 0.00000000)
		(-0.32000000 0.53707471 0.00000000)
		(-0.30000000 0.53657772 0.00000000)
		(-0.28000000 0.53608073 0.00000000)
		(-0.26000000 0.53558374 0.00000000)
		(-0.24000000 0.53508675 0.00000000)
		(-0.22000000 0.53458976 0.00000000)
		(-0.20000000 0.53409276 0.00000000)
		(-0.18000000 0.53359577 0.00000000)
		(-0.16000000 0.53309878 0.00000000)
		(-0.14000000 0.53260179 0.00000000)
		(-0.12000000 0.53210480 0.00000000)
		(-0.10000000 0.53160781 0.00000000)
		(-0.08162011 0.53096990 0.00000000)
		(-0.06324022 0.53139404 0.00000000)
		(-0.04486034 0.53288025 0.00000000)
		(-0.02648045 0.53542851 0.00000000)
		(-0.00810056 0.53903882 0.00000000)
		(0.01027933 0.54371119 0.00000000)
		(0.02865922 0.54944562 0.00000000)
		(0.04703911 0.55624210 0.00000000)
		(0.06541899 0.56410064 0.00000000)
		(0.08379888 0.57302123 0.00000000)
		(0.10055866 0.58082524 0.00000000)
		(0.11731844 0.58824764 0.00000000)
		(0.13407821 0.59525339 0.00000000)
		(0.15083799 0.60180942 0.00000000)
		(0.16759777 0.60788476 0.00000000)
		(0.18435754 0.61345075 0.00000000)
		(0.20111732 0.61848110 0.00000000)
		(0.21787709 0.62295205 0.00000000)
		(0.23463687 0.62684251 0.00000000)
		(0.25139665 0.63013409 0.00000000)
		(0.26815642 0.63281127 0.00000000)
		(0.28491620 0.63486140 0.00000000)
		(0.30167598 0.63627480 0.00000000)
		(0.31843575 0.63704480 0.00000000)
		(0.33519553 0.63716776 0.00000000)
		(0.35195531 0.63664311 0.00000000)
		(0.36871508 0.63547331 0.00000000)
		(0.38547486 0.63366390 0.00000000)
		(0.40223464 0.63122341 0.00000000)
		(0.41899441 0.62816337 0.00000000)
		(0.43575419 0.62449823 0.00000000)
		(0.45251397 0.62024528 0.00000000)
		(0.46927374 0.61542462 0.00000000)
		(0.48603352 0.61005900 0.00000000)
		(0.50279330 0.60417374 0.00000000)
		(0.51955307 0.59779665 0.00000000)
		(0.53631285 0.59095783 0.00000000)
		(0.55307263 0.58368956 0.00000000)
		(0.56983240 0.57602616 0.00000000)
		(0.58659218 0.56800382 0.00000000)
		(0.60335196 0.55966040 0.00000000)
		(0.62011173 0.55103531 0.00000000)
		(0.63687151 0.54216926 0.00000000)
		(0.65363128 0.53310412 0.00000000)
		(0.67039106 0.52388268 0.00000000)
		(0.68715084 0.51454848 0.00000000)
		(0.70391061 0.50514560 0.00000000)
		(0.72067039 0.49571842 0.00000000)
		(0.73743017 0.48631145 0.00000000)
		(0.75418994 0.47696911 0.00000000)
		(0.77094972 0.46773551 0.00000000)
		(0.78770950 0.45865424 0.00000000)
		(0.80446927 0.44976818 0.00000000)
		(0.82122905 0.44111928 0.00000000)
		(0.83798883 0.43274838 0.00000000)
		(0.85474860 0.42469500 0.00000000)
		(0.87150838 0.41699716 0.00000000)
		(0.88826816 0.40969120 0.00000000)
		(0.90502793 0.40281163 0.00000000)
		(0.92178771 0.39639091 0.00000000)
		(0.93854749 0.39045937 0.00000000)
		(0.95530726 0.38504501 0.00000000)
		(0.97206704 0.38017339 0.00000000)
		(0.98882682 0.37586752 0.00000000)
		(1.00558659 0.37214772 0.00000000)
		(1.02234637 0.36903155 0.00000000)
		(1.03910615 0.36653374 0.00000000)
		(1.05586592 0.36466606 0.00000000)
		(1.07262570 0.36343735 0.00000000)
		(1.08938547 0.36285339 0.00000000)
		(1.10614525 0.36291695 0.00000000)
		(1.12290503 0.36362773 0.00000000)
		(1.13966480 0.36498237 0.00000000)
		(1.15642458 0.36697448 0.00000000)
		(1.17318436 0.36959465 0.00000000)
		(1.18994413 0.37283050 0.00000000)
		(1.20670391 0.37666677 0.00000000)
		(1.22346369 0.38108534 0.00000000)
		(1.24022346 0.38606535 0.00000000)
		(1.25698324 0.39158328 0.00000000)
		(1.27374302 0.39761309 0.00000000)
		(1.29050279 0.40412630 0.00000000)
		(1.30726257 0.41109216 0.00000000)
		(1.32402235 0.41847779 0.00000000)
		(1.34078212 0.42624832 0.00000000)
		(1.35754190 0.43436705 0.00000000)
		(1.37430168 0.44279566 0.00000000)
		(1.39106145 0.45149435 0.00000000)
		(1.40782123 0.46042205 0.00000000)
		(1.42458101 0.46953662 0.00000000)
		(1.44134078 0.47879501 0.00000000)
		(1.45810056 0.48815352 0.00000000)
		(1.47486034 0.49756796 0.00000000)
		(1.49162011 0.50699388 0.00000000)
		(1.50837989 0.51638679 0.00000000)
		(1.52513966 0.52570232 0.00000000)
		(1.54189944 0.53489651 0.00000000)
		(1.55865922 0.54392593 0.00000000)
		(1.57541899 0.55274797 0.00000000)
		(1.59217877 0.56132096 0.00000000)
		(1.60893855 0.56960444 0.00000000)
		(1.62569832 0.57755929 0.00000000)
		(1.64245810 0.58514795 0.00000000)
		(1.65921788 0.59233460 0.00000000)
		(1.67597765 0.59908531 0.00000000)
		(1.69273743 0.60536820 0.00000000)
		(1.70949721 0.61115361 0.00000000)
		(1.72625698 0.61641423 0.00000000)
		(1.74301676 0.62112521 0.00000000)
		(1.75977654 0.62526432 0.00000000)
		(1.77653631 0.62881200 0.00000000)
		(1.79329609 0.63175153 0.00000000)
		(1.81005587 0.63406901 0.00000000)
		(1.82681564 0.63575350 0.00000000)
		(1.84357542 0.63679705 0.00000000)
		(1.86033520 0.63719473 0.00000000)
		(1.87709497 0.63694467 0.00000000)
		(1.89385475 0.63604804 0.00000000)
		(1.91061453 0.63450909 0.00000000)
		(1.92737430 0.63233506 0.00000000)
		(1.94413408 0.62953624 0.00000000)
		(1.96089385 0.62612583 0.00000000)
		(1.97765363 0.62211994 0.00000000)
		(1.99441341 0.61753748 0.00000000)
		(2.01117318 0.61240008 0.00000000)
		(2.02793296 0.60673200 0.00000000)
		(2.04469274 0.60056000 0.00000000)
		(2.06145251 0.59391322 0.00000000)
		(2.07821229 0.58682304 0.00000000)
		(2.09497207 0.57932294 0.00000000)
		(2.11173184 0.57144833 0.00000000)
		(2.12849162 0.56323639 0.00000000)
		(2.14525140 0.55472588 0.00000000)
		(2.16201117 0.54595700 0.00000000)
		(2.17877095 0.53697114 0.00000000)
		(2.19553073 0.52781072 0.00000000)
		(2.21229050 0.51851900 0.00000000)
		(2.22905028 0.50913984 0.00000000)
		(2.24581006 0.49971753 0.00000000)
		(2.26256983 0.49029656 0.00000000)
		(2.27932961 0.48092139 0.00000000)
		(2.29608939 0.47163631 0.00000000)
		(2.31284916 0.46248514 0.00000000)
		(2.32960894 0.45351109 0.00000000)
		(2.34636872 0.44475653 0.00000000)
		(2.36312849 0.43626280 0.00000000)
		(2.37988827 0.42806999 0.00000000)
		(2.39664804 0.42021679 0.00000000)
		(2.41340782 0.41274027 0.00000000)
		(2.43016760 0.40567573 0.00000000)
		(2.44692737 0.39905654 0.00000000)
		(2.46368715 0.39291393 0.00000000)
		(2.48044693 0.38727692 0.00000000)
		(2.49720670 0.38217211 0.00000000)
		(2.51396648 0.37762361 0.00000000)