/*--------------------------------*- C++ -*----------------------------------*\\
/*--------------------------------*- C++ -*----------------------------------*\\
| =========                 |                                                 |
| \\\\      /  F ield         | OpenFOAM: The Open Source CFD Toolbox           |
|  \\\\    /   O peration     | Version:  v2012                                 |
|   \\\\  /    A nd           | Website:  www.openfoam.com                      |
|    \\\\/     M anipulation  |                                                 |
\\*---------------------------------------------------------------------------*/
FoamFile
{
    version     2.0;
    format      ascii;
    class       dictionary;
    object      blockMeshDict;
}
// * * * * * * * * * * * * * * * * * * * * * * * * * * * * * * * * * * * * * //

scale   0.01;

xmin -1;
xmax 5;
ymin 0;
ymax 0.5;
zmin 0;
zmax 0.1;

vertices
(
    (-1.00000000 -0.11726817 0.00000000)
    (4.00000000 0.24997717 0.00000000)
    (4.00000000 0.74997717 0.00000000)
    (-1.00000000 0.38273183 0.00000000)
    (-1.00000000 -0.11726817 0.10000000)
    (4.00000000 0.24997717 0.10000000)
    (4.00000000 0.74997717 0.10000000)
    (-1.00000000 0.38273183 0.10000000)
);

blocks
(
    hex (0 1 2 3 4 5 6 7) (200 20 1) simpleGrading (1 1 1)
);

edges
(
	polyLine 0 1
	(
		(-1.00000000 -0.11726817 0.00000000)
		(-0.98000000 -0.11726817 0.00000000)
		(-0.96000000 -0.11726817 0.00000000)
		(-0.94000000 -0.11726817 0.00000000)
		(-0.92000000 -0.11726817 0.00000000)
		(-0.90000000 -0.11726817 0.00000000)
		(-0.88000000 -0.11726817 0.00000000)
		(-0.86000000 -0.11726817 0.00000000)
		(-0.84000000 -0.11726817 0.00000000)
		(-0.82000000 -0.11726817 0.00000000)
		(-0.80000000 -0.11726817 0.00000000)
		(-0.78000000 -0.11726817 0.00000000)
		(-0.76000000 -0.11726817 0.00000000)
		(-0.74000000 -0.11726817 0.00000000)
		(-0.72000000 -0.11726817 0.00000000)
		(-0.70000000 -0.11726817 0.00000000)
		(-0.68000000 -0.11726817 0.00000000)
		(-0.66000000 -0.11726817 0.00000000)
		(-0.64000000 -0.11726817 0.00000000)
		(-0.62000000 -0.11726817 0.00000000)
		(-0.60000000 -0.11726817 0.00000000)
		(-0.58000000 -0.11726817 0.00000000)
		(-0.56000000 -0.11726817 0.00000000)
		(-0.54000000 -0.11726817 0.00000000)
		(-0.52000000 -0.11726817 0.00000000)
		(-0.50000000 -0.11726817 0.00000000)
		(-0.48000000 -0.11726817 0.00000000)
		(-0.46000000 -0.11726817 0.00000000)
		(-0.44000000 -0.11726817 0.00000000)
		(-0.42000000 -0.11726817 0.00000000)
		(-0.40000000 -0.11726817 0.00000000)
		(-0.38000000 -0.11726817 0.00000000)
		(-0.36000000 -0.11726817 0.00000000)
		(-0.34000000 -0.11726817 0.00000000)
		(-0.32000000 -0.11726817 0.00000000)
		(-0.30000000 -0.11726817 0.00000000)
		(-0.28000000 -0.11726817 0.00000000)
		(-0.26000000 -0.11726817 0.00000000)
		(-0.24000000 -0.11726817 0.00000000)
		(-0.22000000 -0.11726817 0.00000000)
		(-0.20000000 -0.11726817 0.00000000)
		(-0.18000000 -0.11726817 0.00000000)
		(-0.16000000 -0.11726817 0.00000000)
		(-0.14000000 -0.11726817 0.00000000)
		(-0.12000000 -0.11726817 0.00000000)
		(-0.10000000 -0.11726817 0.00000000)
		(-0.08162011 -0.11785745 0.00000000)
		(-0.06324022 -0.11962529 0.00000000)
		(-0.04486034 -0.12257168 0.00000000)
		(-0.02648045 -0.12669663 0.00000000)
		(-0.00810056 -0.13200014 0.00000000)
		(0.01027933 -0.13848221 0.00000000)
		(0.02865922 -0.14614284 0.00000000)
		(0.04703911 -0.15498202 0.00000000)
		(0.06541899 -0.16499976 0.00000000)
		(0.08379888 -0.17619606 0.00000000)
		(0.10055866 -0.18630999 0.00000000)
		(0.11731844 -0.19578049 0.00000000)
		(0.13407821 -0.20457484 0.00000000)
		(0.15083799 -0.21266267 0.00000000)
		(0.16759777 -0.22001606 0.00000000)
		(0.18435754 -0.22660960 0.00000000)
		(0.20111732 -0.23242052 0.00000000)
		(0.21787709 -0.23742876 0.00000000)
		(0.23463687 -0.24161702 0.00000000)
		(0.25139665 -0.24497083 0.00000000)
		(0.26815642 -0.24747861 0.00000000)
		(0.28491620 -0.24913170 0.00000000)
		(0.30167598 -0.24992440 0.00000000)
		(0.31843575 -0.24985396 0.00000000)
		(0.33519553 -0.24892063 0.00000000)
		(0.35195531 -0.24712763 0.00000000)
		(0.36871508 -0.24448115 0.00000000)
		(0.38547486 -0.24099033 0.00000000)
		(0.40223464 -0.23666723 0.00000000)
		(0.41899441 -0.23152678 0.00000000)
		(0.43575419 -0.22558674 0.00000000)
		(0.45251397 -0.21886761 0.00000000)
		(0.46927374 -0.21139260 0.00000000)
		(0.48603352 -0.20318753 0.00000000)
		(0.50279330 -0.19428073 0.00000000)
		(0.51955307 -0.18470296 0.00000000)
		(0.53631285 -0.17448731 0.00000000)
		(0.55307263 -0.16366905 0.00000000)
		(0.56983240 -0.15228555 0.00000000)
		(0.58659218 -0.14037611 0.00000000)
		(0.60335196 -0.12798188 0.00000000)
		(0.62011173 -0.11514564 0.00000000)
		(0.63687151 -0.10191174 0.00000000)
		(0.65363128 -0.08832588 0.00000000)
		(0.67039106 -0.07443498 0.00000000)
		(0.68715084 -0.06028701 0.00000000)
		(0.70391061 -0.04593084 0.00000000)
		(0.72067039 -0.03141603 0.00000000)
		(0.73743017 -0.01679273 0.00000000)
		(0.75418994 -0.00211144 0.00000000)
		(0.77094972 0.01257715 0.00000000)
		(0.78770950 0.02722230 0.00000000)
		(0.80446927 0.04177344 0.00000000)
		(0.82122905 0.05618030 0.00000000)
		(0.83798883 0.07039315 0.00000000)
		(0.85474860 0.08436288 0.00000000)
		(0.87150838 0.09804127 0.00000000)
		(0.88826816 0.11138105 0.00000000)
		(0.90502793 0.12433618 0.00000000)
		(0.92178771 0.13686189 0.00000000)
		(0.93854749 0.14891494 0.00000000)
		(0.95530726 0.16045371 0.00000000)
		(0.97206704 0.17143833 0.00000000)
		(0.98882682 0.18183087 0.00000000)
		(1.00558659 0.19159544 0.00000000)
		(1.02234637 0.20069833 0.00000000)
		(1.03910615 0.20910808 0.00000000)
		(1.05586592 0.21679566 0.00000000)
		(1.07262570 0.22373451 0.00000000)
		(1.08938547 0.22990068 0.00000000)
		(1.10614525 0.23527287 0.00000000)
		(1.12290503 0.23983253 0.00000000)
		(1.13966480 0.24356389 0.00000000)
		(1.15642458 0.24645409 0.00000000)
		(1.17318436 0.24849314 0.00000000)
		(1.18994413 0.24967400 0.00000000)
		(1.20670391 0.24999259 0.00000000)
		(1.22346369 0.24944780 0.00000000)
		(1.24022346 0.24804152 0.00000000)
		(1.25698324 0.24577861 0.00000000)
		(1.27374302 0.24266689 0.00000000)
		(1.29050279 0.23871709 0.00000000)
		(1.30726257 0.23394286 0.00000000)
		(1.32402235 0.22836069 0.00000000)
		(1.34078212 0.22198985 0.00000000)
		(1.35754190 0.21485235 0.00000000)
		(1.37430168 0.20697285 0.00000000)
		(1.39106145 0.19837854 0.00000000)
		(1.40782123 0.18909911 0.00000000)
		(1.42458101 0.17916662 0.00000000)
		(1.44134078 0.16861536 0.00000000)
		(1.45810056 0.15748176 0.00000000)
		(1.47486034 0.14580430 0.00000000)
		(1.49162011 0.13362328 0.00000000)
		(1.50837989 0.12098078 0.00000000)
		(1.52513966 0.10792047 0.00000000)
		(1.54189944 0.09448744 0.00000000)
		(1.55865922 0.08072810 0.00000000)
		(1.57541899 0.06668995 0.00000000)
		(1.59217877 0.05242148 0.00000000)
		(1.60893855 0.03797197 0.00000000)
		(1.62569832 0.02339132 0.00000000)
		(1.64245810 0.00872988 0.00000000)
		(1.65921788 -0.00596170 0.00000000)
		(1.67597765 -0.02063269 0.00000000)
		(1.69273743 -0.03523243 0.00000000)
		(1.70949721 -0.04971049 0.00000000)
		(1.72625698 -0.06401687 0.00000000)
		(1.74301676 -0.07810216 0.00000000)
		(1.75977654 -0.09191772 0.00000000)
		(1.77653631 -0.10541583 0.00000000)
		(1.79329609 -0.11854988 0.00000000)
		(1.81005587 -0.13127451 0.00000000)
		(1.82681564 -0.14354577 0.00000000)
		(1.84357542 -0.15532128 0.00000000)
		(1.86033520 -0.16656038 0.00000000)
		(1.87709497 -0.17722424 0.00000000)
		(1.89385475 -0.18727605 0.00000000)
		(1.91061453 -0.19668108 0.00000000)
		(1.92737430 -0.20540686 0.00000000)
		(1.94413408 -0.21342324 0.00000000)
		(1.96089385 -0.22070255 0.00000000)
		(1.97765363 -0.22721965 0.00000000)
		(1.99441341 -0.23295202 0.00000000)
		(2.01117318 -0.23787987 0.00000000)
		(2.02793296 -0.24198618 0.00000000)
		(2.04469274 -0.24525677 0.00000000)
		(2.06145251 -0.24768034 0.00000000)
		(2.07821229 -0.24924853 0.00000000)
		(2.09497207 -0.24995592 0.00000000)
		(2.11173184 -0.24980006 0.00000000)
		(2.12849162 -0.24878150 0.00000000)
		(2.14525140 -0.24690374 0.00000000)
		(2.16201117 -0.24417329 0.00000000)
		(2.17877095 -0.24059956 0.00000000)
		(2.19553073 -0.23619489 0.00000000)
		(2.21229050 -0.23097451 0.00000000)
		(2.22905028 -0.22495644 0.00000000)
		(2.24581006 -0.21816146 0.00000000)
		(2.26256983 -0.21061304 0.00000000)
		(2.27932961 -0.20233725 0.00000000)
		(2.29608939 -0.19336267 0.00000000)
		(2.31284916 -0.18372029 0.00000000)
		(2.32960894 -0.17344343 0.00000000)
		(2.34636872 -0.16256755 0.00000000)
		(2.36312849 -0.15113024 0.00000000)
		(2.37988827 -0.13917099 0.00000000)
		(2.39664804 -0.12673109 0.00000000)
		(2.41340782 -0.11385352 0.00000000)
		(2.43016760 -0.10058275 0.00000000)
		(2.44692737 -0.08696461 0.00000000)
		(2.46368715 -0.07304612 0.00000000)
		(2.48044693 -0.05887536 0.00000000)
		(2.49720670 -0.04450128 0.00000000)
		(2.51396648 -0.02997350 0.00000000)
		(2.53072626 -0.01534221 0.00000000)
		(2.54748603 -0.00065793 0.00000000)
		(2.56424581 0.01402862 0.00000000)
		(2.58100559 0.02866672 0.00000000)
		(2.59776536 0.04320582 0.00000000)
		(2.61452514 0.05759570 0.00000000)
		(2.63128492 0.07178667 0.00000000)
		(2.64804469 0.08572972 0.00000000)
		(2.66480447 0.09937670 0.00000000)
		(2.68156425 0.11268047 0.00000000)
		(2.69832402 0.12559508 0.00000000)
		(2.71508380 0.13807595 0.00000000)
		(2.73184358 0.15007995 0.00000000)
		(2.74860335 0.16156564 0.00000000)
		(2.76536313 0.17249335 0.00000000)
		(2.78212291 0.18282534 0.00000000)
		(2.79888268 0.19252593 0.00000000)
		(2.81564246 0.20156161 0.00000000)
		(2.83240223 0.20990118 0.00000000)
		(2.84916201 0.21751583 0.00000000)
		(2.86592179 0.22437928 0.00000000)
		(2.88268156 0.23046782 0.00000000)
		(2.89944134 0.23576041 0.00000000)
		(2.91620112 0.24023878 0.00000000)
		(2.93296089 0.24388747 0.00000000)
		(2.95166480 0.24504451 0.00000000)
		(2.97036872 0.24607976 0.00000000)
		(2.98907263 0.24699321 0.00000000)
		(3.00777654 0.24778488 0.00000000)
		(3.02648045 0.24845474 0.00000000)
		(3.04518436 0.24900281 0.00000000)
		(3.06388827 0.24942909 0.00000000)
		(3.08259218 0.24973358 0.00000000)
		(3.10129609 0.24991627 0.00000000)
		(3.12000000 0.24997717 0.00000000)
		(3.14000000 0.24997717 0.00000000)
		(3.16000000 0.24997717 0.00000000)
		(3.18000000 0.24997717 0.00000000)
		(3.20000000 0.24997717 0.00000000)
		(3.22000000 0.24997717 0.00000000)
		(3.24000000 0.24997717 0.00000000)
		(3.26000000 0.24997717 0.00000000)
		(3.28000000 0.24997717 0.00000000)
		(3.30000000 0.24997717 0.00000000)
		(3.32000000 0.24997717 0.00000000)
		(3.34000000 0.24997717 0.00000000)
		(3.36000000 0.24997717 0.00000000)
		(3.38000000 0.24997717 0.00000000)
		(3.40000000 0.24997717 0.00000000)
		(3.42000000 0.24997717 0.00000000)
		(3.44000000 0.24997717 0.00000000)
		(3.46000000 0.24997717 0.00000000)
		(3.48000000 0.24997717 0.00000000)
		(3.50000000 0.24997717 0.00000000)
		(3.52000000 0.24997717 0.00000000)
		(3.54000000 0.24997717 0.00000000)
		(3.56000000 0.24997717 0.00000000)
		(3.58000000 0.24997717 0.00000000)
		(3.60000000 0.24997717 0.00000000)
		(3.62000000 0.24997717 0.00000000)
		(3.64000000 0.24997717 0.00000000)
		(3.66000000 0.24997717 0.00000000)
		(3.68000000 0.24997717 0.00000000)
		(3.70000000 0.24997717 0.00000000)
		(3.72000000 0.24997717 0.00000000)
		(3.74000000 0.24997717 0.00000000)
		(3.76000000 0.24997717 0.00000000)
		(3.78000000 0.24997717 0.00000000)
		(3.80000000 0.24997717 0.00000000)
		(3.82000000 0.24997717 0.00000000)
		(3.84000000 0.24997717 0.00000000)
		(3.86000000 0.24997717 0.00000000)
		(3.88000000 0.24997717 0.00000000)
		(3.90000000 0.24997717 0.00000000)
		(3.92000000 0.24997717 0.00000000)
		(3.94000000 0.24997717 0.00000000)
		(3.96000000 0.24997717 0.00000000)
		(3.98000000 0.24997717 0.00000000)
		(4.00000000 0.24997717 0.00000000)
	)
	polyLine 4 5
	(
		(-1.00000000 -0.11726817 0.10000000)
		(-0.98000000 -0.11726817 0.10000000)
		(-0.96000000 -0.11726817 0.10000000)
		(-0.94000000 -0.11726817 0.10000000)
		(-0.92000000 -0.11726817 0.10000000)
		(-0.90000000 -0.11726817 0.10000000)
		(-0.88000000 -0.11726817 0.10000000)
		(-0.86000000 -0.11726817 0.10000000)
		(-0.84000000 -0.11726817 0.10000000)
		(-0.82000000 -0.11726817 0.10000000)
		(-0.80000000 -0.11726817 0.10000000)
		(-0.78000000 -0.11726817 0.10000000)
		(-0.76000000 -0.11726817 0.10000000)
		(-0.74000000 -0.11726817 0.10000000)
		(-0.72000000 -0.11726817 0.10000000)
		(-0.70000000 -0.11726817 0.10000000)
		(-0.68000000 -0.11726817 0.10000000)
		(-0.66000000 -0.11726817 0.10000000)
		(-0.64000000 -0.11726817 0.10000000)
		(-0.62000000 -0.11726817 0.10000000)
		(-0.60000000 -0.11726817 0.10000000)
		(-0.58000000 -0.11726817 0.10000000)
		(-0.56000000 -0.11726817 0.10000000)
		(-0.54000000 -0.11726817 0.10000000)
		(-0.52000000 -0.11726817 0.10000000)
		(-0.50000000 -0.11726817 0.10000000)
		(-0.48000000 -0.11726817 0.10000000)
		(-0.46000000 -0.11726817 0.10000000)
		(-0.44000000 -0.11726817 0.10000000)
		(-0.42000000 -0.11726817 0.10000000)
		(-0.40000000 -0.11726817 0.10000000)
		(-0.38000000 -0.11726817 0.10000000)
		(-0.36000000 -0.11726817 0.10000000)
		(-0.34000000 -0.11726817 0.10000000)
		(-0.32000000 -0.11726817 0.10000000)
		(-0.30000000 -0.11726817 0.10000000)
		(-0.28000000 -0.11726817 0.10000000)
		(-0.26000000 -0.11726817 0.10000000)
		(-0.24000000 -0.11726817 0.10000000)
		(-0.22000000 -0.11726817 0.10000000)
		(-0.20000000 -0.11726817 0.10000000)
		(-0.18000000 -0.11726817 0.10000000)
		(-0.16000000 -0.11726817 0.10000000)
		(-0.14000000 -0.11726817 0.10000000)
		(-0.12000000 -0.11726817 0.10000000)
		(-0.10000000 -0.11726817 0.10000000)
		(-0.08162011 -0.11785745 0.10000000)
		(-0.06324022 -0.11962529 0.10000000)
		(-0.04486034 -0.12257168 0.10000000)
		(-0.02648045 -0.12669663 0.10000000)
		(-0.00810056 -0.13200014 0.10000000)
		(0.01027933 -0.13848221 0.10000000)
		(0.02865922 -0.14614284 0.10000000)
		(0.04703911 -0.15498202 0.10000000)
		(0.06541899 -0.16499976 0.10000000)
		(0.08379888 -0.17619606 0.10000000)
		(0.10055866 -0.18630999 0.10000000)
		(0.11731844 -0.19578049 0.10000000)
		(0.13407821 -0.20457484 0.10000000)
		(0.15083799 -0.21266267 0.10000000)
		(0.16759777 -0.22001606 0.10000000)
		(0.18435754 -0.22660960 0.10000000)
		(0.20111732 -0.23242052 0.10000000)
		(0.21787709 -0.23742876 0.10000000)
		(0.23463687 -0.24161702 0.10000000)
		(0.25139665 -0.24497083 0.10000000)
		(0.26815642 -0.24747861 0.10000000)
		(0.28491620 -0.24913170 0.10000000)
		(0.30167598 -0.24992440 0.10000000)
		(0.31843575 -0.24985396 0.10000000)
		(0.33519553 -0.24892063 0.10000000)
		(0.35195531 -0.24712763 0.10000000)
		(0.36871508 -0.24448115 0.10000000)
		(0.38547486 -0.24099033 0.10000000)
		(0.40223464 -0.23666723 0.10000000)
		(0.41899441 -0.23152678 0.10000000)
		(0.43575419 -0.22558674 0.10000000)
		(0.45251397 -0.21886761 0.10000000)
		(0.46927374 -0.21139260 0.10000000)
		(0.48603352 -0.20318753 0.10000000)
		(0.50279330 -0.19428073 0.10000000)
		(0.51955307 -0.18470296 0.10000000)
		(0.53631285 -0.17448731 0.10000000)
		(0.55307263 -0.16366905 0.10000000)
		(0.56983240 -0.15228555 0.10000000)
		(0.58659218 -0.14037611 0.10000000)
		(0.60335196 -0.12798188 0.10000000)
		(0.62011173 -0.11514564 0.10000000)
		(0.63687151 -0.10191174 0.10000000)
		(0.65363128 -0.08832588 0.10000000)
		(0.67039106 -0.07443498 0.10000000)
		(0.68715084 -0.06028701 0.10000000)
		(0.70391061 -0.04593084 0.10000000)
		(0.72067039 -0.03141603 0.10000000)
		(0.73743017 -0.01679273 0.10000000)
		(0.75418994 -0.00211144 0.10000000)
		(0.77094972 0.01257715 0.10000000)
		(0.78770950 0.02722230 0.10000000)
		(0.80446927 0.04177344 0.10000000)
		(0.82122905 0.05618030 0.10000000)
		(0.83798883 0.07039315 0.10000000)
		(0.85474860 0.08436288 0.10000000)
		(0.87150838 0.09804127 0.10000000)
		(0.88826816 0.11138105 0.10000000)
		(0.90502793 0.12433618 0.10000000)
		(0.92178771 0.13686189 0.10000000)
		(0.93854749 0.14891494 0.10000000)
		(0.95530726 0.16045371 0.10000000)
		(0.97206704 0.17143833 0.10000000)
		(0.98882682 0.18183087 0.10000000)
		(1.00558659 0.19159544 0.10000000)
		(1.02234637 0.20069833 0.10000000)
		(1.03910615 0.20910808 0.10000000)
		(1.05586592 0.21679566 0.10000000)
		(1.07262570 0.22373451 0.10000000)
		(1.08938547 0.22990068 0.10000000)
		(1.10614525 0.23527287 0.10000000)
		(1.12290503 0.23983253 0.10000000)
		(1.13966480 0.24356389 0.10000000)
		(1.15642458 0.24645409 0.10000000)
		(1.17318436 0.24849314 0.10000000)
		(1.18994413 0.24967400 0.10000000)
		(1.20670391 0.24999259 0.10000000)
		(1.22346369 0.24944780 0.10000000)
		(1.24022346 0.24804152 0.10000000)
		(1.25698324 0.24577861 0.10000000)
		(1.27374302 0.24266689 0.10000000)
		(1.29050279 0.23871709 0.10000000)
		(1.30726257 0.23394286 0.10000000)
		(1.32402235 0.22836069 0.10000000)
		(1.34078212 0.22198985 0.10000000)
		(1.35754190 0.21485235 0.10000000)
		(1.37430168 0.20697285 0.10000000)
		(1.39106145 0.19837854 0.10000000)
		(1.40782123 0.18909911 0.10000000)
		(1.42458101 0.17916662 0.10000000)
		(1.44134078 0.16861536 0.10000000)
		(1.45810056 0.15748176 0.10000000)
		(1.47486034 0.14580430 0.10000000)
		(1.49162011 0.13362328 0.10000000)
		(1.50837989 0.12098078 0.10000000)
		(1.52513966 0.10792047 0.10000000)
		(1.54189944 0.09448744 0.10000000)
		(1.55865922 0.08072810 0.10000000)
		(1.57541899 0.06668995 0.10000000)
		(1.59217877 0.05242148 0.10000000)
		(1.60893855 0.03797197 0.10000000)
		(1.62569832 0.02339132 0.10000000)
		(1.64245810 0.00872988 0.10000000)
		(1.65921788 -0.00596170 0.10000000)
		(1.67597765 -0.02063269 0.10000000)
		(1.69273743 -0.03523243 0.10000000)
		(1.70949721 -0.04971049 0.10000000)
		(1.72625698 -0.06401687 0.10000000)
		(1.74301676 -0.07810216 0.10000000)
		(1.75977654 -0.09191772 0.10000000)
		(1.77653631 -0.10541583 0.10000000)
		(1.79329609 -0.11854988 0.10000000)
		(1.81005587 -0.13127451 0.10000000)
		(1.82681564 -0.14354577 0.10000000)
		(1.84357542 -0.15532128 0.10000000)
		(1.86033520 -0.16656038 0.10000000)
		(1.87709497 -0.17722424 0.10000000)
		(1.89385475 -0.18727605 0.10000000)
		(1.91061453 -0.19668108 0.10000000)
		(1.92737430 -0.20540686 0.10000000)
		(1.94413408 -0.21342324 0.10000000)
		(1.96089385 -0.22070255 0.10000000)
		(1.97765363 -0.22721965 0.10000000)
		(1.99441341 -0.23295202 0.10000000)
		(2.01117318 -0.23787987 0.10000000)
		(2.02793296 -0.24198618 0.10000000)
		(2.04469274 -0.24525677 0.10000000)
		(2.06145251 -0.24768034 0.10000000)
		(2.07821229 -0.24924853 0.10000000)
		(2.09497207 -0.24995592 0.10000000)
		(2.11173184 -0.24980006 0.10000000)
		(2.12849162 -0.24878150 0.10000000)
		(2.14525140 -0.24690374 0.10000000)
		(2.16201117 -0.24417329 0.10000000)
		(2.17877095 -0.24059956 0.10000000)
		(2.19553073 -0.23619489 0.10000000)
		(2.21229050 -0.23097451 0.10000000)
		(2.22905028 -0.22495644 0.10000000)
		(2.24581006 -0.21816146 0.10000000)
		(2.26256983 -0.21061304 0.10000000)
		(2.27932961 -0.20233725 0.10000000)
		(2.29608939 -0.19336267 0.10000000)
		(2.31284916 -0.18372029 0.10000000)
		(2.32960894 -0.17344343 0.10000000)
		(2.34636872 -0.16256755 0.10000000)
		(2.36312849 -0.15113024 0.10000000)
		(2.37988827 -0.13917099 0.10000000)
		(2.39664804 -0.12673109 0.10000000)
		(2.41340782 -0.11385352 0.10000000)
		(2.43016760 -0.10058275 0.10000000)
		(2.44692737 -0.08696461 0.10000000)
		(2.46368715 -0.07304612 0.10000000)
		(2.48044693 -0.05887536 0.10000000)
		(2.49720670 -0.04450128 0.10000000)
		(2.51396648 -0.02997350 0.10000000)
		(2.53072626 -0.01534221 0.10000000)
		(2.54748603 -0.00065793 0.10000000)
		(2.56424581 0.01402862 0.10000000)
		(2.58100559 0.02866672 0.10000000)
		(2.59776536 0.04320582 0.10000000)
		(2.61452514 0.05759570 0.10000000)
		(2.63128492 0.07178667 0.10000000)
		(2.64804469 0.08572972 0.10000000)
		(2.66480447 0.09937670 0.10000000)
		(2.68156425 0.11268047 0.10000000)
		(2.69832402 0.12559508 0.10000000)
		(2.71508380 0.13807595 0.10000000)
		(2.73184358 0.15007995 0.10000000)
		(2.74860335 0.16156564 0.10000000)
		(2.76536313 0.17249335 0.10000000)
		(2.78212291 0.18282534 0.10000000)
		(2.79888268 0.19252593 0.10000000)
		(2.81564246 0.20156161 0.10000000)
		(2.83240223 0.20990118 0.10000000)
		(2.84916201 0.21751583 0.10000000)
		(2.86592179 0.22437928 0.10000000)
		(2.88268156 0.23046782 0.10000000)
		(2.89944134 0.23576041 0.10000000)
		(2.91620112 0.24023878 0.10000000)
		(2.93296089 0.24388747 0.10000000)
		(2.95166480 0.24504451 0.10000000)
		(2.97036872 0.24607976 0.10000000)
		(2.98907263 0.24699321 0.10000000)
		(3.00777654 0.24778488 0.10000000)
		(3.02648045 0.24845474 0.10000000)
		(3.04518436 0.24900281 0.10000000)
		(3.06388827 0.24942909 0.10000000)
		(3.08259218 0.24973358 0.10000000)
		(3.10129609 0.24991627 0.10000000)
		(3.12000000 0.24997717 0.10000000)
		(3.14000000 0.24997717 0.10000000)
		(3.16000000 0.24997717 0.10000000)
		(3.18000000 0.24997717 0.10000000)
		(3.20000000 0.24997717 0.10000000)
		(3.22000000 0.24997717 0.10000000)
		(3.24000000 0.24997717 0.10000000)
		(3.26000000 0.24997717 0.10000000)
		(3.28000000 0.24997717 0.10000000)
		(3.30000000 0.24997717 0.10000000)
		(3.32000000 0.24997717 0.10000000)
		(3.34000000 0.24997717 0.10000000)
		(3.36000000 0.24997717 0.10000000)
		(3.38000000 0.24997717 0.10000000)
		(3.40000000 0.24997717 0.10000000)
		(3.42000000 0.24997717 0.10000000)
		(3.44000000 0.24997717 0.10000000)
		(3.46000000 0.24997717 0.10000000)
		(3.48000000 0.24997717 0.10000000)
		(3.50000000 0.24997717 0.10000000)
		(3.52000000 0.24997717 0.10000000)
		(3.54000000 0.24997717 0.10000000)
		(3.56000000 0.24997717 0.10000000)
		(3.58000000 0.24997717 0.10000000)
		(3.60000000 0.24997717 0.10000000)
		(3.62000000 0.24997717 0.10000000)
		(3.64000000 0.24997717 0.10000000)
		(3.66000000 0.24997717 0.10000000)
		(3.68000000 0.24997717 0.10000000)
		(3.70000000 0.24997717 0.10000000)
		(3.72000000 0.24997717 0.10000000)
		(3.74000000 0.24997717 0.10000000)
		(3.76000000 0.24997717 0.10000000)
		(3.78000000 0.24997717 0.10000000)
		(3.80000000 0.24997717 0.10000000)
		(3.82000000 0.24997717 0.10000000)
		(3.84000000 0.24997717 0.10000000)
		(3.86000000 0.24997717 0.10000000)
		(3.88000000 0.24997717 0.10000000)
		(3.90000000 0.24997717 0.10000000)
		(3.92000000 0.24997717 0.10000000)
		(3.94000000 0.24997717 0.10000000)
		(3.96000000 0.24997717 0.10000000)
		(3.98000000 0.24997717 0.10000000)
		(4.00000000 0.24997717 0.10000000)
	)
	polyLine 3 2
	(
		(-1.00000000 0.38273183 0.00000000)
		(-0.98000000 0.38192861 0.00000000)
		(-0.96000000 0.38112540 0.00000000)
		(-0.94000000 0.38032218 0.00000000)
		(-0.92000000 0.37951897 0.00000000)
		(-0.90000000 0.37871575 0.00000000)
		(-0.88000000 0.37791254 0.00000000)
		(-0.86000000 0.37710932 0.00000000)
		(-0.84000000 0.37630611 0.00000000)
		(-0.82000000 0.37550289 0.00000000)
		(-0.80000000 0.37469968 0.00000000)
		(-0.78000000 0.37389646 0.00000000)
		(-0.76000000 0.37309325 0.00000000)
		(-0.74000000 0.37229003 0.00000000)
		(-0.72000000 0.37148682 0.00000000)
		(-0.70000000 0.37068360 0.00000000)
		(-0.68000000 0.36988039 0.00000000)
		(-0.66000000 0.36907717 0.00000000)
		(-0.64000000 0.36827396 0.00000000)
		(-0.62000000 0.36747074 0.00000000)
		(-0.60000000 0.36666753 0.00000000)
		(-0.58000000 0.36586431 0.00000000)
		(-0.56000000 0.36506110 0.00000000)
		(-0.54000000 0.36425788 0.00000000)
		(-0.52000000 0.36345467 0.00000000)
		(-0.50000000 0.36265145 0.00000000)
		(-0.48000000 0.36184824 0.00000000)
		(-0.46000000 0.36104502 0.00000000)
		(-0.44000000 0.36024181 0.00000000)
		(-0.42000000 0.35943859 0.00000000)
		(-0.40000000 0.35863538 0.00000000)
		(-0.38000000 0.35783216 0.00000000)
		(-0.36000000 0.35702895 0.00000000)
		(-0.34000000 0.35622573 0.00000000)
		(-0.32000000 0.35542252 0.00000000)
		(-0.30000000 0.35461930 0.00000000)
		(-0.28000000 0.35381609 0.00000000)
		(-0.26000000 0.35301287 0.00000000)
		(-0.24000000 0.35220966 0.00000000)
		(-0.22000000 0.35140644 0.00000000)
		(-0.20000000 0.35060323 0.00000000)
		(-0.18000000 0.34980001 0.00000000)
		(-0.16000000 0.34899680 0.00000000)
		(-0.14000000 0.34819358 0.00000000)
		(-0.12000000 0.34739036 0.00000000)
		(-0.10000000 0.34658715 0.00000000)
		(-0.08162011 0.34655277 0.00000000)
		(-0.06324022 0.34470563 0.00000000)
		(-0.04486034 0.34104572 0.00000000)
		(-0.02648045 0.33557305 0.00000000)
		(-0.00810056 0.32828762 0.00000000)
		(0.01027933 0.31918943 0.00000000)
		(0.02865922 0.30827847 0.00000000)
		(0.04703911 0.29555475 0.00000000)
		(0.06541899 0.28101827 0.00000000)
		(0.08379888 0.26466903 0.00000000)
		(0.10055866 0.25116065 0.00000000)
		(0.11731844 0.23851167 0.00000000)
		(0.13407821 0.22676576 0.00000000)
		(0.15083799 0.21596349 0.00000000)
		(0.16759777 0.20614216 0.00000000)
		(0.18435754 0.19733570 0.00000000)
		(0.20111732 0.18957452 0.00000000)
		(0.21787709 0.18288541 0.00000000)
		(0.23463687 0.17729149 0.00000000)
		(0.25139665 0.17281208 0.00000000)
		(0.26815642 0.16946263 0.00000000)
		(0.28491620 0.16725473 0.00000000)
		(0.30167598 0.16619598 0.00000000)
		(0.31843575 0.16629007 0.00000000)
		(0.33519553 0.16753664 0.00000000)
		(0.35195531 0.16993141 0.00000000)
		(0.36871508 0.17346610 0.00000000)
		(0.38547486 0.17812851 0.00000000)
		(0.40223464 0.18390252 0.00000000)
		(0.41899441 0.19076821 0.00000000)
		(0.43575419 0.19870185 0.00000000)
		(0.45251397 0.20767606 0.00000000)
		(0.46927374 0.21765983 0.00000000)
		(0.48603352 0.22861869 0.00000000)
		(0.50279330 0.24051478 0.00000000)
		(0.51955307 0.25330704 0.00000000)
		(0.53631285 0.26695126 0.00000000)
		(0.55307263 0.28140035 0.00000000)
		(0.56983240 0.29660438 0.00000000)
		(0.58659218 0.31251086 0.00000000)
		(0.60335196 0.32906485 0.00000000)
		(0.62011173 0.34620918 0.00000000)
		(0.63687151 0.36388464 0.00000000)
		(0.65363128 0.38203019 0.00000000)
		(0.67039106 0.40058315 0.00000000)
		(0.68715084 0.41947946 0.00000000)
		(0.70391061 0.43865386 0.00000000)
		(0.72067039 0.45804012 0.00000000)
		(0.73743017 0.47757129 0.00000000)
		(0.75418994 0.49717992 0.00000000)
		(0.77094972 0.51679829 0.00000000)
		(0.78770950 0.53635865 0.00000000)
		(0.80446927 0.55579343 0.00000000)
		(0.82122905 0.57503554 0.00000000)
		(0.83798883 0.59401849 0.00000000)
		(0.85474860 0.61267675 0.00000000)
		(0.87150838 0.63094587 0.00000000)
		(0.88826816 0.64876276 0.00000000)
		(0.90502793 0.66606588 0.00000000)
		(0.92178771 0.68279547 0.00000000)
		(0.93854749 0.69889377 0.00000000)
		(0.95530726 0.71430517 0.00000000)
		(0.97206704 0.72897645 0.00000000)
		(0.98882682 0.74285694 0.00000000)
		(1.00558659 0.75589870 0.00000000)
		(1.02234637 0.76805669 0.00000000)
		(1.03910615 0.77928892 0.00000000)
		(1.05586592 0.78955661 0.00000000)
		(1.07262570 0.79882428 0.00000000)
		(1.08938547 0.80705994 0.00000000)
		(1.10614525 0.81423514 0.00000000)
		(1.12290503 0.82032511 0.00000000)
		(1.13966480 0.82530880 0.00000000)
		(1.15642458 0.82916901 0.00000000)
		(1.17318436 0.83189240 0.00000000)
		(1.18994413 0.83346958 0.00000000)
		(1.20670391 0.83389509 0.00000000)
		(1.22346369 0.83316746 0.00000000)
		(1.24022346 0.83128921 0.00000000)
		(1.25698324 0.82826682 0.00000000)
		(1.27374302 0.82411074 0.00000000)
		(1.29050279 0.81883531 0.00000000)
		(1.30726257 0.81245875 0.00000000)
		(1.32402235 0.80500309 0.00000000)
		(1.34078212 0.79649408 0.00000000)
		(1.35754190 0.78696109 0.00000000)
		(1.37430168 0.77643706 0.00000000)
		(1.39106145 0.76495834 0.00000000)
		(1.40782123 0.75256455 0.00000000)
		(1.42458101 0.73929851 0.00000000)
		(1.44134078 0.72520603 0.00000000)
		(1.45810056 0.71033579 0.00000000)
		(1.47486034 0.69473913 0.00000000)
		(1.49162011 0.67846992 0.00000000)
		(1.50837989 0.66158435 0.00000000)
		(1.52513966 0.64414073 0.00000000)
		(1.54189944 0.62619932 0.00000000)
		(1.55865922 0.60782206 0.00000000)
		(1.57541899 0.58907243 0.00000000)
		(1.59217877 0.57001517 0.00000000)
		(1.60893855 0.55071612 0.00000000)
		(1.62569832 0.53124191 0.00000000)
		(1.64245810 0.51165981 0.00000000)
		(1.65921788 0.49203744 0.00000000)
		(1.67597765 0.47244256 0.00000000)
		(1.69273743 0.45294286 0.00000000)
		(1.70949721 0.43360568 0.00000000)
		(1.72625698 0.41449779 0.00000000)
		(1.74301676 0.39568519 0.00000000)
		(1.75977654 0.37723286 0.00000000)
		(1.77653631 0.35920451 0.00000000)
		(1.79329609 0.34166241 0.00000000)
		(1.81005587 0.32466714 0.00000000)
		(1.82681564 0.30827740 0.00000000)
		(1.84357542 0.29254979 0.00000000)
		(1.86033520 0.27753863 0.00000000)
		(1.87709497 0.26329576 0.00000000)
		(1.89385475 0.24987037 0.00000000)
		(1.91061453 0.23730882 0.00000000)
		(1.92737430 0.22565450 0.00000000)
		(1.94413408 0.21494766 0.00000000)
		(1.96089385 0.20522527 0.00000000)
		(1.97765363 0.19652091 0.00000000)
		(1.99441341 0.18886464 0.00000000)
		(2.01117318 0.18228290 0.00000000)
		(2.02793296 0.17679843 0.00000000)
		(2.04469274 0.17243017 0.00000000)
		(2.06145251 0.16919319 0.00000000)
		(2.07821229 0.16709869 0.00000000)
		(2.09497207 0.16615389 0.00000000)
		(2.11173184 0.16636205 0.00000000)
		(2.12849162 0.16772247 0.00000000)
		(2.14525140 0.17023043 0.00000000)
		(2.16201117 0.17387728 0.00000000)
		(2.17877095 0.17865043 0.00000000)
		(2.19553073 0.18453339 0.00000000)
		(2.21229050 0.19150583 0.00000000)
		(2.22905028 0.19954369 0.00000000)
		(2.24581006 0.20861920 0.00000000)
		(2.26256983 0.21870102 0.00000000)
		(2.27932961 0.22975433 0.00000000)
		(2.29608939 0.24174096 0.00000000)
		(2.31284916 0.25461951 0.00000000)
		(2.32960894 0.26834550 0.00000000)
		(2.34636872 0.28287153 0.00000000)
		(2.36312849 0.29814743 0.00000000)
		(2.37988827 0.31412045 0.00000000)
		(2.39664804 0.33073542 0.00000000)
		(2.41340782 0.34793496 0.00000000)
		(2.43016760 0.36565967 0.00000000)
		(2.44692737 0.38384834 0.00000000)
		(2.46368715 0.40243814 0.00000000)
		(2.48044693 0.42136489 0.00000000)
		(2.49720670 0.44056321 0.00000000)
		(2.51396648 0.45996679 0.00000000)