/*--------------------------------*- C++ -*----------------------------------*\\
/*--------------------------------*- C++ -*----------------------------------*\\
| =========                 |                                                 |
| \\\\      /  F ield         | OpenFOAM: The Open Source CFD Toolbox           |
|  \\\\    /   O peration     | Version:  v2012                                 |
|   \\\\  /    A nd           | Website:  www.openfoam.com                      |
|    \\\\/     M anipulation  |                                                 |
\\*---------------------------------------------------------------------------*/
FoamFile
{
    version     2.0;
    format      ascii;
    class       dictionary;
    object      blockMeshDict;
}
// * * * * * * * * * * * * * * * * * * * * * * * * * * * * * * * * * * * * * //

scale   0.01;

xmin -1;
xmax 5;
ymin 0;
ymax 0.5;
zmin 0;
zmax 0.1;

vertices
(
    (-1.00000000 -0.01042551 0.00000000)
    (4.00000000 -0.17950252 0.00000000)
    (4.00000000 0.32049748 0.00000000)
    (-1.00000000 0.48957449 0.00000000)
    (-1.00000000 -0.01042551 0.10000000)
    (4.00000000 -0.17950252 0.10000000)
    (4.00000000 0.32049748 0.10000000)
    (-1.00000000 0.48957449 0.10000000)
);

blocks
(
    hex (0 1 2 3 4 5 6 7) (200 20 1) simpleGrading (1 1 1)
);

edges
(
	polyLine 0 1
	(
		(-1.00000000 -0.01042551 0.00000000)
		(-0.98000000 -0.01042551 0.00000000)
		(-0.96000000 -0.01042551 0.00000000)
		(-0.94000000 -0.01042551 0.00000000)
		(-0.92000000 -0.01042551 0.00000000)
		(-0.90000000 -0.01042551 0.00000000)
		(-0.88000000 -0.01042551 0.00000000)
		(-0.86000000 -0.01042551 0.00000000)
		(-0.84000000 -0.01042551 0.00000000)
		(-0.82000000 -0.01042551 0.00000000)
		(-0.80000000 -0.01042551 0.00000000)
		(-0.78000000 -0.01042551 0.00000000)
		(-0.76000000 -0.01042551 0.00000000)
		(-0.74000000 -0.01042551 0.00000000)
		(-0.72000000 -0.01042551 0.00000000)
		(-0.70000000 -0.01042551 0.00000000)
		(-0.68000000 -0.01042551 0.00000000)
		(-0.66000000 -0.01042551 0.00000000)
		(-0.64000000 -0.01042551 0.00000000)
		(-0.62000000 -0.01042551 0.00000000)
		(-0.60000000 -0.01042551 0.00000000)
		(-0.58000000 -0.01042551 0.00000000)
		(-0.56000000 -0.01042551 0.00000000)
		(-0.54000000 -0.01042551 0.00000000)
		(-0.52000000 -0.01042551 0.00000000)
		(-0.50000000 -0.01042551 0.00000000)
		(-0.48000000 -0.01042551 0.00000000)
		(-0.46000000 -0.01042551 0.00000000)
		(-0.44000000 -0.01042551 0.00000000)
		(-0.42000000 -0.01042551 0.00000000)
		(-0.40000000 -0.01042551 0.00000000)
		(-0.38000000 -0.01042551 0.00000000)
		(-0.36000000 -0.01042551 0.00000000)
		(-0.34000000 -0.01042551 0.00000000)
		(-0.32000000 -0.01042551 0.00000000)
		(-0.30000000 -0.01042551 0.00000000)
		(-0.28000000 -0.01042551 0.00000000)
		(-0.26000000 -0.01042551 0.00000000)
		(-0.24000000 -0.01042551 0.00000000)
		(-0.22000000 -0.01042551 0.00000000)
		(-0.20000000 -0.01042551 0.00000000)
		(-0.18000000 -0.01042551 0.00000000)
		(-0.16000000 -0.01042551 0.00000000)
		(-0.14000000 -0.01042551 0.00000000)
		(-0.12000000 -0.01042551 0.00000000)
		(-0.10000000 -0.01042551 0.00000000)
		(-0.08162011 -0.01132680 0.00000000)
		(-0.06324022 -0.01403066 0.00000000)
		(-0.04486034 -0.01853711 0.00000000)
		(-0.02648045 -0.02484612 0.00000000)
		(-0.00810056 -0.03295772 0.00000000)
		(0.01027933 -0.04287189 0.00000000)
		(0.02865922 -0.05458864 0.00000000)
		(0.04703911 -0.06810796 0.00000000)
		(0.06541899 -0.08342987 0.00000000)
		(0.08379888 -0.10055434 0.00000000)
		(0.10055866 -0.11729945 0.00000000)
		(0.11731844 -0.13339478 0.00000000)
		(0.13407821 -0.14875117 0.00000000)
		(0.15083799 -0.16328357 0.00000000)
		(0.16759777 -0.17691146 0.00000000)
		(0.18435754 -0.18955937 0.00000000)
		(0.20111732 -0.20115722 0.00000000)
		(0.21787709 -0.21164076 0.00000000)
		(0.23463687 -0.22095194 0.00000000)
		(0.25139665 -0.22903916 0.00000000)
		(0.26815642 -0.23585763 0.00000000)
		(0.28491620 -0.24136958 0.00000000)
		(0.30167598 -0.24554448 0.00000000)
		(0.31843575 -0.24835919 0.00000000)
		(0.33519553 -0.24979813 0.00000000)
		(0.35195531 -0.24985333 0.00000000)
		(0.36871508 -0.24852448 0.00000000)
		(0.38547486 -0.24581894 0.00000000)
		(0.40223464 -0.24175169 0.00000000)
		(0.41899441 -0.23634528 0.00000000)
		(0.43575419 -0.22962964 0.00000000)
		(0.45251397 -0.22164198 0.00000000)
		(0.46927374 -0.21242655 0.00000000)
		(0.48603352 -0.20203439 0.00000000)
		(0.50279330 -0.19052307 0.00000000)
		(0.51955307 -0.17795636 0.00000000)
		(0.53631285 -0.16440386 0.00000000)
		(0.55307263 -0.14994066 0.00000000)
		(0.56983240 -0.13464688 0.00000000)
		(0.58659218 -0.11860722 0.00000000)
		(0.60335196 -0.10191054 0.00000000)
		(0.62011173 -0.08464934 0.00000000)
		(0.63687151 -0.06691922 0.00000000)
		(0.65363128 -0.04881841 0.00000000)
		(0.67039106 -0.03044717 0.00000000)
		(0.68715084 -0.01190727 0.00000000)
		(0.70391061 0.00669859 0.00000000)
		(0.72067039 0.02526734 0.00000000)
		(0.73743017 0.04369612 0.00000000)
		(0.75418994 0.06188286 0.00000000)
		(0.77094972 0.07972679 0.00000000)
		(0.78770950 0.09712909 0.00000000)
		(0.80446927 0.11399334 0.00000000)
		(0.82122905 0.13022613 0.00000000)
		(0.83798883 0.14573754 0.00000000)
		(0.85474860 0.16044164 0.00000000)
		(0.87150838 0.17425699 0.00000000)
		(0.88826816 0.18710705 0.00000000)
		(0.90502793 0.19892063 0.00000000)
		(0.92178771 0.20963231 0.00000000)
		(0.93854749 0.21918274 0.00000000)
		(0.95530726 0.22751902 0.00000000)
		(0.97206704 0.23459497 0.00000000)
		(0.98882682 0.24037139 0.00000000)
		(1.00558659 0.24481628 0.00000000)
		(1.02234637 0.24790503 0.00000000)
		(1.03910615 0.24962052 0.00000000)
		(1.05586592 0.24995325 0.00000000)
		(1.07262570 0.24890138 0.00000000)
		(1.08938547 0.24647073 0.00000000)
		(1.10614525 0.24267477 0.00000000)
		(1.12290503 0.23753452 0.00000000)
		(1.13966480 0.23107846 0.00000000)
		(1.15642458 0.22334236 0.00000000)
		(1.17318436 0.21436906 0.00000000)
		(1.18994413 0.20420827 0.00000000)
		(1.20670391 0.19291629 0.00000000)
		(1.22346369 0.18055565 0.00000000)
		(1.24022346 0.16719484 0.00000000)
		(1.25698324 0.15290785 0.00000000)
		(1.27374302 0.13777384 0.00000000)
		(1.29050279 0.12187665 0.00000000)
		(1.30726257 0.10530432 0.00000000)
		(1.32402235 0.08814866 0.00000000)
		(1.34078212 0.07050471 0.00000000)
		(1.35754190 0.05247020 0.00000000)
		(1.37430168 0.03414503 0.00000000)
		(1.39106145 0.01563072 0.00000000)
		(1.40782123 -0.00297017 0.00000000)
		(1.42458101 -0.02155461 0.00000000)
		(1.44134078 -0.04001966 0.00000000)
		(1.45810056 -0.05826301 0.00000000)
		(1.47486034 -0.07618362 0.00000000)
		(1.49162011 -0.09368222 0.00000000)
		(1.50837989 -0.11066186 0.00000000)
		(1.52513966 -0.12702850 0.00000000)
		(1.54189944 -0.14269148 0.00000000)
		(1.55865922 -0.15756402 0.00000000)
		(1.57541899 -0.17156374 0.00000000)
		(1.59217877 -0.18461309 0.00000000)
		(1.60893855 -0.19663979 0.00000000)
		(1.62569832 -0.20757721 0.00000000)
		(1.64245810 -0.21736477 0.00000000)
		(1.65921788 -0.22594825 0.00000000)
		(1.67597765 -0.23328010 0.00000000)
		(1.69273743 -0.23931971 0.00000000)
		(1.70949721 -0.24403361 0.00000000)
		(1.72625698 -0.24739571 0.00000000)
		(1.74301676 -0.24938737 0.00000000)
		(1.75977654 -0.24999755 0.00000000)
		(1.77653631 -0.24922290 0.00000000)
		(1.79329609 -0.24706768 0.00000000)
		(1.81005587 -0.24354384 0.00000000)
		(1.82681564 -0.23867091 0.00000000)
		(1.84357542 -0.23247587 0.00000000)
		(1.86033520 -0.22499304 0.00000000)
		(1.87709497 -0.21626387 0.00000000)
		(1.89385475 -0.20633672 0.00000000)
		(1.91061453 -0.19526658 0.00000000)
		(1.92737430 -0.18311477 0.00000000)
		(1.94413408 -0.16994861 0.00000000)
		(1.96089385 -0.15584102 0.00000000)
		(1.97765363 -0.14087016 0.00000000)
		(1.99441341 -0.12511896 0.00000000)
		(2.01117318 -0.10867466 0.00000000)
		(2.02793296 -0.09162837 0.00000000)
		(2.04469274 -0.07407451 0.00000000)
		(2.06145251 -0.05611031 0.00000000)
		(2.07821229 -0.03783530 0.00000000)
		(2.09497207 -0.01935070 0.00000000)
		(2.11173184 -0.00075890 0.00000000)
		(2.12849162 0.01783709 0.00000000)
		(2.14525140 0.03633428 0.00000000)
		(2.16201117 0.05463020 0.00000000)
		(2.17877095 0.07262350 0.00000000)
		(2.19553073 0.09021450 0.00000000)
		(2.21229050 0.10730576 0.00000000)
		(2.22905028 0.12380261 0.00000000)
		(2.24581006 0.13961366 0.00000000)
		(2.26256983 0.15465133 0.00000000)
		(2.27932961 0.16883232 0.00000000)
		(2.29608939 0.18207806 0.00000000)
		(2.31284916 0.19431520 0.00000000)
		(2.32960894 0.20547593 0.00000000)
		(2.34636872 0.21549844 0.00000000)
		(2.36312849 0.22432721 0.00000000)
		(2.37988827 0.23191333 0.00000000)
		(2.39664804 0.23821478 0.00000000)
		(2.41340782 0.24319665 0.00000000)
		(2.43016760 0.24683134 0.00000000)
		(2.44692737 0.24909872 0.00000000)
		(2.46368715 0.24998623 0.00000000)
		(2.48044693 0.24948896 0.00000000)
		(2.49720670 0.24760966 0.00000000)
		(2.51396648 0.24435873 0.00000000)
		(2.53072626 0.23975419 0.00000000)
		(2.54748603 0.23382155 0.00000000)
		(2.56424581 0.22659366 0.00000000)
		(2.58100559 0.21811057 0.00000000)
		(2.59776536 0.20841926 0.00000000)
		(2.61452514 0.19757343 0.00000000)
		(2.63128492 0.18563315 0.00000000)
		(2.64804469 0.17266457 0.00000000)
		(2.66480447 0.15873951 0.00000000)
		(2.68156425 0.14393513 0.00000000)
		(2.69832402 0.12833343 0.00000000)
		(2.71508380 0.11202083 0.00000000)
		(2.73184358 0.09508769 0.00000000)
		(2.74860335 0.07762783 0.00000000)
		(2.76536313 0.05973794 0.00000000)
		(2.78212291 0.04151715 0.00000000)
		(2.79888268 0.02306637 0.00000000)
		(2.81564246 0.00448781 0.00000000)
		(2.83240223 -0.01411560 0.00000000)
		(2.84916201 -0.03264083 0.00000000)
		(2.86592179 -0.05098524 0.00000000)
		(2.88268156 -0.06904722 0.00000000)
		(2.89944134 -0.08672671 0.00000000)
		(2.91620112 -0.10392579 0.00000000)
		(2.93296089 -0.12054918 0.00000000)
		(2.95166480 -0.13175031 0.00000000)
		(2.97036872 -0.14177238 0.00000000)
		(2.98907263 -0.15061538 0.00000000)
		(3.00777654 -0.15827932 0.00000000)
		(3.02648045 -0.16476419 0.00000000)
		(3.04518436 -0.17006999 0.00000000)
		(3.06388827 -0.17419672 0.00000000)
		(3.08259218 -0.17714439 0.00000000)
		(3.10129609 -0.17891299 0.00000000)
		(3.12000000 -0.17950252 0.00000000)
		(3.14000000 -0.17950252 0.00000000)
		(3.16000000 -0.17950252 0.00000000)
		(3.18000000 -0.17950252 0.00000000)
		(3.20000000 -0.17950252 0.00000000)
		(3.22000000 -0.17950252 0.00000000)
		(3.24000000 -0.17950252 0.00000000)
		(3.26000000 -0.17950252 0.00000000)
		(3.28000000 -0.17950252 0.00000000)
		(3.30000000 -0.17950252 0.00000000)
		(3.32000000 -0.17950252 0.00000000)
		(3.34000000 -0.17950252 0.00000000)
		(3.36000000 -0.17950252 0.00000000)
		(3.38000000 -0.17950252 0.00000000)
		(3.40000000 -0.17950252 0.00000000)
		(3.42000000 -0.17950252 0.00000000)
		(3.44000000 -0.17950252 0.00000000)
		(3.46000000 -0.17950252 0.00000000)
		(3.48000000 -0.17950252 0.00000000)
		(3.50000000 -0.17950252 0.00000000)
		(3.52000000 -0.17950252 0.00000000)
		(3.54000000 -0.17950252 0.00000000)
		(3.56000000 -0.17950252 0.00000000)
		(3.58000000 -0.17950252 0.00000000)
		(3.60000000 -0.17950252 0.00000000)
		(3.62000000 -0.17950252 0.00000000)
		(3.64000000 -0.17950252 0.00000000)
		(3.66000000 -0.17950252 0.00000000)
		(3.68000000 -0.17950252 0.00000000)
		(3.70000000 -0.17950252 0.00000000)
		(3.72000000 -0.17950252 0.00000000)
		(3.74000000 -0.17950252 0.00000000)
		(3.76000000 -0.17950252 0.00000000)
		(3.78000000 -0.17950252 0.00000000)
		(3.80000000 -0.17950252 0.00000000)
		(3.82000000 -0.17950252 0.00000000)
		(3.84000000 -0.17950252 0.00000000)
		(3.86000000 -0.17950252 0.00000000)
		(3.88000000 -0.17950252 0.00000000)
		(3.90000000 -0.17950252 0.00000000)
		(3.92000000 -0.17950252 0.00000000)
		(3.94000000 -0.17950252 0.00000000)
		(3.96000000 -0.17950252 0.00000000)
		(3.98000000 -0.17950252 0.00000000)
		(4.00000000 -0.17950252 0.00000000)
	)
	polyLine 4 5
	(
		(-1.00000000 -0.01042551 0.10000000)
		(-0.98000000 -0.01042551 0.10000000)
		(-0.96000000 -0.01042551 0.10000000)
		(-0.94000000 -0.01042551 0.10000000)
		(-0.92000000 -0.01042551 0.10000000)
		(-0.90000000 -0.01042551 0.10000000)
		(-0.88000000 -0.01042551 0.10000000)
		(-0.86000000 -0.01042551 0.10000000)
		(-0.84000000 -0.01042551 0.10000000)
		(-0.82000000 -0.01042551 0.10000000)
		(-0.80000000 -0.01042551 0.10000000)
		(-0.78000000 -0.01042551 0.10000000)
		(-0.76000000 -0.01042551 0.10000000)
		(-0.74000000 -0.01042551 0.10000000)
		(-0.72000000 -0.01042551 0.10000000)
		(-0.70000000 -0.01042551 0.10000000)
		(-0.68000000 -0.01042551 0.10000000)
		(-0.66000000 -0.01042551 0.10000000)
		(-0.64000000 -0.01042551 0.10000000)
		(-0.62000000 -0.01042551 0.10000000)
		(-0.60000000 -0.01042551 0.10000000)
		(-0.58000000 -0.01042551 0.10000000)
		(-0.56000000 -0.01042551 0.10000000)
		(-0.54000000 -0.01042551 0.10000000)
		(-0.52000000 -0.01042551 0.10000000)
		(-0.50000000 -0.01042551 0.10000000)
		(-0.48000000 -0.01042551 0.10000000)
		(-0.46000000 -0.01042551 0.10000000)
		(-0.44000000 -0.01042551 0.10000000)
		(-0.42000000 -0.01042551 0.10000000)
		(-0.40000000 -0.01042551 0.10000000)
		(-0.38000000 -0.01042551 0.10000000)
		(-0.36000000 -0.01042551 0.10000000)
		(-0.34000000 -0.01042551 0.10000000)
		(-0.32000000 -0.01042551 0.10000000)
		(-0.30000000 -0.01042551 0.10000000)
		(-0.28000000 -0.01042551 0.10000000)
		(-0.26000000 -0.01042551 0.10000000)
		(-0.24000000 -0.01042551 0.10000000)
		(-0.22000000 -0.01042551 0.10000000)
		(-0.20000000 -0.01042551 0.10000000)
		(-0.18000000 -0.01042551 0.10000000)
		(-0.16000000 -0.01042551 0.10000000)
		(-0.14000000 -0.01042551 0.10000000)
		(-0.12000000 -0.01042551 0.10000000)
		(-0.10000000 -0.01042551 0.10000000)
		(-0.08162011 -0.01132680 0.10000000)
		(-0.06324022 -0.01403066 0.10000000)
		(-0.04486034 -0.01853711 0.10000000)
		(-0.02648045 -0.02484612 0.10000000)
		(-0.00810056 -0.03295772 0.10000000)
		(0.01027933 -0.04287189 0.10000000)
		(0.02865922 -0.05458864 0.10000000)
		(0.04703911 -0.06810796 0.10000000)
		(0.06541899 -0.08342987 0.10000000)
		(0.08379888 -0.10055434 0.10000000)
		(0.10055866 -0.11729945 0.10000000)
		(0.11731844 -0.13339478 0.10000000)
		(0.13407821 -0.14875117 0.10000000)
		(0.15083799 -0.16328357 0.10000000)
		(0.16759777 -0.17691146 0.10000000)
		(0.18435754 -0.18955937 0.10000000)
		(0.20111732 -0.20115722 0.10000000)
		(0.21787709 -0.21164076 0.10000000)
		(0.23463687 -0.22095194 0.10000000)
		(0.25139665 -0.22903916 0.10000000)
		(0.26815642 -0.23585763 0.10000000)
		(0.28491620 -0.24136958 0.10000000)
		(0.30167598 -0.24554448 0.10000000)
		(0.31843575 -0.24835919 0.10000000)
		(0.33519553 -0.24979813 0.10000000)
		(0.35195531 -0.24985333 0.10000000)
		(0.36871508 -0.24852448 0.10000000)
		(0.38547486 -0.24581894 0.10000000)
		(0.40223464 -0.24175169 0.10000000)
		(0.41899441 -0.23634528 0.10000000)
		(0.43575419 -0.22962964 0.10000000)
		(0.45251397 -0.22164198 0.10000000)
		(0.46927374 -0.21242655 0.10000000)
		(0.48603352 -0.20203439 0.10000000)
		(0.50279330 -0.19052307 0.10000000)
		(0.51955307 -0.17795636 0.10000000)
		(0.53631285 -0.16440386 0.10000000)
		(0.55307263 -0.14994066 0.10000000)
		(0.56983240 -0.13464688 0.10000000)
		(0.58659218 -0.11860722 0.10000000)
		(0.60335196 -0.10191054 0.10000000)
		(0.62011173 -0.08464934 0.10000000)
		(0.63687151 -0.06691922 0.10000000)
		(0.65363128 -0.04881841 0.10000000)
		(0.67039106 -0.03044717 0.10000000)
		(0.68715084 -0.01190727 0.10000000)
		(0.70391061 0.00669859 0.10000000)
		(0.72067039 0.02526734 0.10000000)
		(0.73743017 0.04369612 0.10000000)
		(0.75418994 0.06188286 0.10000000)
		(0.77094972 0.07972679 0.10000000)
		(0.78770950 0.09712909 0.10000000)
		(0.80446927 0.11399334 0.10000000)
		(0.82122905 0.13022613 0.10000000)
		(0.83798883 0.14573754 0.10000000)
		(0.85474860 0.16044164 0.10000000)
		(0.87150838 0.17425699 0.10000000)
		(0.88826816 0.18710705 0.10000000)
		(0.90502793 0.19892063 0.10000000)
		(0.92178771 0.20963231 0.10000000)
		(0.93854749 0.21918274 0.10000000)
		(0.95530726 0.22751902 0.10000000)
		(0.97206704 0.23459497 0.10000000)
		(0.98882682 0.24037139 0.10000000)
		(1.00558659 0.24481628 0.10000000)
		(1.02234637 0.24790503 0.10000000)
		(1.03910615 0.24962052 0.10000000)
		(1.05586592 0.24995325 0.10000000)
		(1.07262570 0.24890138 0.10000000)
		(1.08938547 0.24647073 0.10000000)
		(1.10614525 0.24267477 0.10000000)
		(1.12290503 0.23753452 0.10000000)
		(1.13966480 0.23107846 0.10000000)
		(1.15642458 0.22334236 0.10000000)
		(1.17318436 0.21436906 0.10000000)
		(1.18994413 0.20420827 0.10000000)
		(1.20670391 0.19291629 0.10000000)
		(1.22346369 0.18055565 0.10000000)
		(1.24022346 0.16719484 0.10000000)
		(1.25698324 0.15290785 0.10000000)
		(1.27374302 0.13777384 0.10000000)
		(1.29050279 0.12187665 0.10000000)
		(1.30726257 0.10530432 0.10000000)
		(1.32402235 0.08814866 0.10000000)
		(1.34078212 0.07050471 0.10000000)
		(1.35754190 0.05247020 0.10000000)
		(1.37430168 0.03414503 0.10000000)
		(1.39106145 0.01563072 0.10000000)
		(1.40782123 -0.00297017 0.10000000)
		(1.42458101 -0.02155461 0.10000000)
		(1.44134078 -0.04001966 0.10000000)
		(1.45810056 -0.05826301 0.10000000)
		(1.47486034 -0.07618362 0.10000000)
		(1.49162011 -0.09368222 0.10000000)
		(1.50837989 -0.11066186 0.10000000)
		(1.52513966 -0.12702850 0.10000000)
		(1.54189944 -0.14269148 0.10000000)
		(1.55865922 -0.15756402 0.10000000)
		(1.57541899 -0.17156374 0.10000000)
		(1.59217877 -0.18461309 0.10000000)
		(1.60893855 -0.19663979 0.10000000)
		(1.62569832 -0.20757721 0.10000000)
		(1.64245810 -0.21736477 0.10000000)
		(1.65921788 -0.22594825 0.10000000)
		(1.67597765 -0.23328010 0.10000000)
		(1.69273743 -0.23931971 0.10000000)
		(1.70949721 -0.24403361 0.10000000)
		(1.72625698 -0.24739571 0.10000000)
		(1.74301676 -0.24938737 0.10000000)
		(1.75977654 -0.24999755 0.10000000)
		(1.77653631 -0.24922290 0.10000000)
		(1.79329609 -0.24706768 0.10000000)
		(1.81005587 -0.24354384 0.10000000)
		(1.82681564 -0.23867091 0.10000000)
		(1.84357542 -0.23247587 0.10000000)
		(1.86033520 -0.22499304 0.10000000)
		(1.87709497 -0.21626387 0.10000000)
		(1.89385475 -0.20633672 0.10000000)
		(1.91061453 -0.19526658 0.10000000)
		(1.92737430 -0.18311477 0.10000000)
		(1.94413408 -0.16994861 0.10000000)
		(1.96089385 -0.15584102 0.10000000)
		(1.97765363 -0.14087016 0.10000000)
		(1.99441341 -0.12511896 0.10000000)
		(2.01117318 -0.10867466 0.10000000)
		(2.02793296 -0.09162837 0.10000000)
		(2.04469274 -0.07407451 0.10000000)
		(2.06145251 -0.05611031 0.10000000)
		(2.07821229 -0.03783530 0.10000000)
		(2.09497207 -0.01935070 0.10000000)
		(2.11173184 -0.00075890 0.10000000)
		(2.12849162 0.01783709 0.10000000)
		(2.14525140 0.03633428 0.10000000)
		(2.16201117 0.05463020 0.10000000)
		(2.17877095 0.07262350 0.10000000)
		(2.19553073 0.09021450 0.10000000)
		(2.21229050 0.10730576 0.10000000)
		(2.22905028 0.12380261 0.10000000)
		(2.24581006 0.13961366 0.10000000)
		(2.26256983 0.15465133 0.10000000)
		(2.27932961 0.16883232 0.10000000)
		(2.29608939 0.18207806 0.10000000)
		(2.31284916 0.19431520 0.10000000)
		(2.32960894 0.20547593 0.10000000)
		(2.34636872 0.21549844 0.10000000)
		(2.36312849 0.22432721 0.10000000)
		(2.37988827 0.23191333 0.10000000)
		(2.39664804 0.23821478 0.10000000)
		(2.41340782 0.24319665 0.10000000)
		(2.43016760 0.24683134 0.10000000)
		(2.44692737 0.24909872 0.10000000)
		(2.46368715 0.24998623 0.10000000)
		(2.48044693 0.24948896 0.10000000)
		(2.49720670 0.24760966 0.10000000)
		(2.51396648 0.24435873 0.10000000)
		(2.53072626 0.23975419 0.10000000)
		(2.54748603 0.23382155 0.10000000)
		(2.56424581 0.22659366 0.10000000)
		(2.58100559 0.21811057 0.10000000)
		(2.59776536 0.20841926 0.10000000)
		(2.61452514 0.19757343 0.10000000)
		(2.63128492 0.18563315 0.10000000)
		(2.64804469 0.17266457 0.10000000)
		(2.66480447 0.15873951 0.10000000)
		(2.68156425 0.14393513 0.10000000)
		(2.69832402 0.12833343 0.10000000)
		(2.71508380 0.11202083 0.10000000)
		(2.73184358 0.09508769 0.10000000)
		(2.74860335 0.07762783 0.10000000)
		(2.76536313 0.05973794 0.10000000)
		(2.78212291 0.04151715 0.10000000)
		(2.79888268 0.02306637 0.10000000)
		(2.81564246 0.00448781 0.10000000)
		(2.83240223 -0.01411560 0.10000000)
		(2.84916201 -0.03264083 0.10000000)
		(2.86592179 -0.05098524 0.10000000)
		(2.88268156 -0.06904722 0.10000000)
		(2.89944134 -0.08672671 0.10000000)
		(2.91620112 -0.10392579 0.10000000)
		(2.93296089 -0.12054918 0.10000000)
		(2.95166480 -0.13175031 0.10000000)
		(2.97036872 -0.14177238 0.10000000)
		(2.98907263 -0.15061538 0.10000000)
		(3.00777654 -0.15827932 0.10000000)
		(3.02648045 -0.16476419 0.10000000)
		(3.04518436 -0.17006999 0.10000000)
		(3.06388827 -0.17419672 0.10000000)
		(3.08259218 -0.17714439 0.10000000)
		(3.10129609 -0.17891299 0.10000000)
		(3.12000000 -0.17950252 0.10000000)
		(3.14000000 -0.17950252 0.10000000)
		(3.16000000 -0.17950252 0.10000000)
		(3.18000000 -0.17950252 0.10000000)
		(3.20000000 -0.17950252 0.10000000)
		(3.22000000 -0.17950252 0.10000000)
		(3.24000000 -0.17950252 0.10000000)
		(3.26000000 -0.17950252 0.10000000)
		(3.28000000 -0.17950252 0.10000000)
		(3.30000000 -0.17950252 0.10000000)
		(3.32000000 -0.17950252 0.10000000)
		(3.34000000 -0.17950252 0.10000000)
		(3.36000000 -0.17950252 0.10000000)
		(3.38000000 -0.17950252 0.10000000)
		(3.40000000 -0.17950252 0.10000000)
		(3.42000000 -0.17950252 0.10000000)
		(3.44000000 -0.17950252 0.10000000)
		(3.46000000 -0.17950252 0.10000000)
		(3.48000000 -0.17950252 0.10000000)
		(3.50000000 -0.17950252 0.10000000)
		(3.52000000 -0.17950252 0.10000000)
		(3.54000000 -0.17950252 0.10000000)
		(3.56000000 -0.17950252 0.10000000)
		(3.58000000 -0.17950252 0.10000000)
		(3.60000000 -0.17950252 0.10000000)
		(3.62000000 -0.17950252 0.10000000)
		(3.64000000 -0.17950252 0.10000000)
		(3.66000000 -0.17950252 0.10000000)
		(3.68000000 -0.17950252 0.10000000)
		(3.70000000 -0.17950252 0.10000000)
		(3.72000000 -0.17950252 0.10000000)
		(3.74000000 -0.17950252 0.10000000)
		(3.76000000 -0.17950252 0.10000000)
		(3.78000000 -0.17950252 0.10000000)
		(3.80000000 -0.17950252 0.10000000)
		(3.82000000 -0.17950252 0.10000000)
		(3.84000000 -0.17950252 0.10000000)
		(3.86000000 -0.17950252 0.10000000)
		(3.88000000 -0.17950252 0.10000000)
		(3.90000000 -0.17950252 0.10000000)
		(3.92000000 -0.17950252 0.10000000)
		(3.94000000 -0.17950252 0.10000000)
		(3.96000000 -0.17950252 0.10000000)
		(3.98000000 -0.17950252 0.10000000)
		(4.00000000 -0.17950252 0.10000000)
	)
	polyLine 3 2
	(
		(-1.00000000 0.48957449 0.00000000)
		(-0.98000000 0.48960510 0.00000000)
		(-0.96000000 0.48963570 0.00000000)
		(-0.94000000 0.48966631 0.00000000)
		(-0.92000000 0.48969692 0.00000000)
		(-0.90000000 0.48972752 0.00000000)
		(-0.88000000 0.48975813 0.00000000)
		(-0.86000000 0.48978874 0.00000000)
		(-0.84000000 0.48981934 0.00000000)
		(-0.82000000 0.48984995 0.00000000)
		(-0.80000000 0.48988056 0.00000000)
		(-0.78000000 0.48991116 0.00000000)
		(-0.76000000 0.48994177 0.00000000)
		(-0.74000000 0.48997237 0.00000000)
		(-0.72000000 0.49000298 0.00000000)
		(-0.70000000 0.49003359 0.00000000)
		(-0.68000000 0.49006419 0.00000000)
		(-0.66000000 0.49009480 0.00000000)
		(-0.64000000 0.49012541 0.00000000)
		(-0.62000000 0.49015601 0.00000000)
		(-0.60000000 0.49018662 0.00000000)
		(-0.58000000 0.49021723 0.00000000)
		(-0.56000000 0.49024783 0.00000000)
		(-0.54000000 0.49027844 0.00000000)
		(-0.52000000 0.49030905 0.00000000)
		(-0.50000000 0.49033965 0.00000000)
		(-0.48000000 0.49037026 0.00000000)
		(-0.46000000 0.49040087 0.00000000)
		(-0.44000000 0.49043147 0.00000000)
		(-0.42000000 0.49046208 0.00000000)
		(-0.40000000 0.49049269 0.00000000)
		(-0.38000000 0.49052329 0.00000000)
		(-0.36000000 0.49055390 0.00000000)
		(-0.34000000 0.49058451 0.00000000)
		(-0.32000000 0.49061511 0.00000000)
		(-0.30000000 0.49064572 0.00000000)
		(-0.28000000 0.49067633 0.00000000)
		(-0.26000000 0.49070693 0.00000000)
		(-0.24000000 0.49073754 0.00000000)
		(-0.22000000 0.49076815 0.00000000)
		(-0.20000000 0.49079875 0.00000000)
		(-0.18000000 0.49082936 0.00000000)
		(-0.16000000 0.49085997 0.00000000)
		(-0.14000000 0.49089057 0.00000000)
		(-0.12000000 0.49092118 0.00000000)
		(-0.10000000 0.49095179 0.00000000)
		(-0.08162011 0.49148981 0.00000000)
		(-0.06324022 0.49019624 0.00000000)
		(-0.04486034 0.48707108 0.00000000)
		(-0.02648045 0.48211434 0.00000000)
		(-0.00810056 0.47532601 0.00000000)
		(0.01027933 0.46670609 0.00000000)
		(0.02865922 0.45625458 0.00000000)
		(0.04703911 0.44397148 0.00000000)
		(0.06541899 0.42985680 0.00000000)
		(0.08379888 0.41391053 0.00000000)
		(0.10055866 0.39957423 0.00000000)
		(0.11731844 0.38579424 0.00000000)
		(0.13407821 0.37264688 0.00000000)
		(0.15083799 0.36020499 0.00000000)
		(0.16759777 0.34853748 0.00000000)
		(0.18435754 0.33770900 0.00000000)
		(0.20111732 0.32777951 0.00000000)
		(0.21787709 0.31880404 0.00000000)
		(0.23463687 0.31083229 0.00000000)
		(0.25139665 0.30390842 0.00000000)
		(0.26815642 0.29807080 0.00000000)
		(0.28491620 0.29335175 0.00000000)
		(0.30167598 0.28977742 0.00000000)
		(0.31843575 0.28736760 0.00000000)
		(0.33519553 0.28613565 0.00000000)
		(0.35195531 0.28608840 0.00000000)
		(0.36871508 0.28722609 0.00000000)
		(0.38547486 0.28954244 0.00000000)
		(0.40223464 0.29302460 0.00000000)
		(0.41899441 0.29765330 0.00000000)
		(0.43575419 0.30340288 0.00000000)
		(0.45251397 0.31024151 0.00000000)
		(0.46927374 0.31813129 0.00000000)
		(0.48603352 0.32702852 0.00000000)
		(0.50279330 0.33688393 0.00000000)
		(0.51955307 0.34764290 0.00000000)
		(0.53631285 0.35924585 0.00000000)
		(0.55307263 0.37162850 0.00000000)
		(0.56983240 0.38472225 0.00000000)
		(0.58659218 0.39845459 0.00000000)
		(0.60335196 0.41274942 0.00000000)
		(0.62011173 0.42752758 0.00000000)
		(0.63687151 0.44270720 0.00000000)
		(0.65363128 0.45820418 0.00000000)
		(0.67039106 0.47393269 0.00000000)
		(0.68715084 0.48980560 0.00000000)
		(0.70391061 0.50573499 0.00000000)
		(0.72067039 0.52163260 0.00000000)
		(0.73743017 0.53741038 0.00000000)
		(0.75418994 0.55298093 0.00000000)
		(0.77094972 0.56825799 0.00000000)
		(0.78770950 0.58315694 0.00000000)
		(0.80446927 0.59759525 0.00000000)
		(0.82122905 0.61149293 0.00000000)
		(0.83798883 0.62477300 0.00000000)
		(0.85474860 0.63736190 0.00000000)
		(0.87150838 0.64918989 0.00000000)
		(0.88826816 0.66019145 0.00000000)
		(0.90502793 0.67030564 0.00000000)
		(0.92178771 0.67947643 0.00000000)
		(0.93854749 0.68765302 0.00000000)
		(0.95530726 0.69479011 0.00000000)
		(0.97206704 0.70084817 0.00000000)
		(0.98882682 0.70579365 0.00000000)
		(1.00558659 0.70959914 0.00000000)
		(1.02234637 0.71224357 0.00000000)
		(1.03910615 0.71371228 0.00000000)
		(1.05586592 0.71399715 0.00000000)
		(1.07262570 0.71309659 0.00000000)
		(1.08938547 0.71101559 0.00000000)
		(1.10614525 0.70776568 0.00000000)
		(1.12290503 0.70336487 0.00000000)
		(1.13966480 0.69783752 0.00000000)
		(1.15642458 0.69121427 0.00000000)
		(1.17318436 0.68353179 0.00000000)
		(1.18994413 0.67483265 0.00000000)
		(1.20670391 0.66516503 0.00000000)
		(1.22346369 0.65458248 0.00000000)
		(1.24022346 0.64314364 0.00000000)
		(1.25698324 0.63091186 0.00000000)
		(1.27374302 0.61795490 0.00000000)
		(1.29050279 0.60434453 0.00000000)
		(1.30726257 0.59015615 0.00000000)
		(1.32402235 0.57546836 0.00000000)
		(1.34078212 0.56036251 0.00000000)
		(1.35754190 0.54492229 0.00000000)
		(1.37430168 0.52923323 0.00000000)
		(1.39106145 0.51338222 0.00000000)
		(1.40782123 0.49745709 0.00000000)
		(1.42458101 0.48154605 0.00000000)
		(1.44134078 0.46573722 0.00000000)
		(1.45810056 0.45011820 0.00000000)
		(1.47486034 0.43477549 0.00000000)
		(1.49162011 0.41979409 0.00000000)
		(1.50837989 0.40525699 0.00000000)
		(1.52513966 0.39124471 0.00000000)
		(1.54189944 0.37783488 0.00000000)
		(1.55865922 0.36510177 0.00000000)
		(1.57541899 0.35311593 0.00000000)
		(1.59217877 0.34194374 0.00000000)
		(1.60893855 0.33164710 0.00000000)
		(1.62569832 0.32228304 0.00000000)
		(1.64245810 0.31390343 0.00000000)
		(1.65921788 0.30655470 0.00000000)
		(1.67597765 0.30027755 0.00000000)
		(1.69273743 0.29510675 0.00000000)
		(1.70949721 0.29107094 0.00000000)
		(1.72625698 0.28819249 0.00000000)
		(1.74301676 0.28648733 0.00000000)
		(1.75977654 0.28596492 0.00000000)
		(1.77653631 0.28662814 0.00000000)
		(1.79329609 0.28847333 0.00000000)
		(1.81005587 0.29149026 0.00000000)
		(1.82681564 0.29566222 0.00000000)
		(1.84357542 0.30096609 0.00000000)
		(1.86033520 0.30737250 0.00000000)
		(1.87709497 0.31484597 0.00000000)
		(1.89385475 0.32334508 0.00000000)
		(1.91061453 0.33282277 0.00000000)
		(1.92737430 0.34322653 0.00000000)
		(1.94413408 0.35449872 0.00000000)
		(1.96089385 0.36657691 0.00000000)
		(1.97765363 0.37939420 0.00000000)
		(1.99441341 0.39287957 0.00000000)
		(2.01117318 0.40695833 0.00000000)
		(2.02793296 0.42155249 0.00000000)
		(2.04469274 0.43658121 0.00000000)
		(2.06145251 0.45196123 0.00000000)
		(2.07821229 0.46760736 0.00000000)
		(2.09497207 0.48343293 0.00000000)
		(2.11173184 0.49935027 0.00000000)
		(2.12849162 0.51527120 0.00000000)
		(2.14525140 0.53110755 0.00000000)
		(2.16201117 0.54677158 0.00000000)
		(2.17877095 0.56217651 0.00000000)
		(2.19553073 0.57723703 0.00000000)
		(2.21229050 0.59186969 0.00000000)
		(2.22905028 0.60599345 0.00000000)
		(2.24581006 0.61953006 0.00000000)
		(2.26256983 0.63240454 0.00000000)
		(2.27932961 0.64454557 0.00000000)
		(2.29608939 0.65588589 0.00000000)
		(2.31284916 0.66636270 0.00000000)
		(2.32960894 0.67591795 0.00000000)
		(2.34636872 0.68449871 0.00000000)
		(2.36312849 0.69205745 0.00000000)
		(2.37988827 0.69855229 0.00000000)
		(2.39664804 0.70394727 0.00000000)
		(2.41340782 0.70821249 0.00000000)
		(2.43016760 0.71132433 0.00000000)
		(2.44692737 0.71326554 0.00000000)
		(2.46368715 0.71402539 0.00000000)