/*--------------------------------*- C++ -*----------------------------------*\\
/*--------------------------------*- C++ -*----------------------------------*\\
| =========                 |                                                 |
| \\\\      /  F ield         | OpenFOAM: The Open Source CFD Toolbox           |
|  \\\\    /   O peration     | Version:  v2012                                 |
|   \\\\  /    A nd           | Website:  www.openfoam.com                      |
|    \\\\/     M anipulation  |                                                 |
\\*---------------------------------------------------------------------------*/
FoamFile
{
    version     2.0;
    format      ascii;
    class       dictionary;
    object      blockMeshDict;
}
// * * * * * * * * * * * * * * * * * * * * * * * * * * * * * * * * * * * * * //

scale   0.01;

xmin -1;
xmax 5;
ymin 0;
ymax 0.5;
zmin 0;
zmax 0.1;

vertices
(
    (-1.00000000 0.06903028 0.00000000)
    (4.00000000 -0.16981753 0.00000000)
    (4.00000000 0.33018247 0.00000000)
    (-1.00000000 0.56903028 0.00000000)
    (-1.00000000 0.06903028 0.10000000)
    (4.00000000 -0.16981753 0.10000000)
    (4.00000000 0.33018247 0.10000000)
    (-1.00000000 0.56903028 0.10000000)
);

blocks
(
    hex (0 1 2 3 4 5 6 7) (200 20 1) simpleGrading (1 1 1)
);

edges
(
	polyLine 0 1
	(
		(-1.00000000 0.06903028 0.00000000)
		(-0.98000000 0.06903028 0.00000000)
		(-0.96000000 0.06903028 0.00000000)
		(-0.94000000 0.06903028 0.00000000)
		(-0.92000000 0.06903028 0.00000000)
		(-0.90000000 0.06903028 0.00000000)
		(-0.88000000 0.06903028 0.00000000)
		(-0.86000000 0.06903028 0.00000000)
		(-0.84000000 0.06903028 0.00000000)
		(-0.82000000 0.06903028 0.00000000)
		(-0.80000000 0.06903028 0.00000000)
		(-0.78000000 0.06903028 0.00000000)
		(-0.76000000 0.06903028 0.00000000)
		(-0.74000000 0.06903028 0.00000000)
		(-0.72000000 0.06903028 0.00000000)
		(-0.70000000 0.06903028 0.00000000)
		(-0.68000000 0.06903028 0.00000000)
		(-0.66000000 0.06903028 0.00000000)
		(-0.64000000 0.06903028 0.00000000)
		(-0.62000000 0.06903028 0.00000000)
		(-0.60000000 0.06903028 0.00000000)
		(-0.58000000 0.06903028 0.00000000)
		(-0.56000000 0.06903028 0.00000000)
		(-0.54000000 0.06903028 0.00000000)
		(-0.52000000 0.06903028 0.00000000)
		(-0.50000000 0.06903028 0.00000000)
		(-0.48000000 0.06903028 0.00000000)
		(-0.46000000 0.06903028 0.00000000)
		(-0.44000000 0.06903028 0.00000000)
		(-0.42000000 0.06903028 0.00000000)
		(-0.40000000 0.06903028 0.00000000)
		(-0.38000000 0.06903028 0.00000000)
		(-0.36000000 0.06903028 0.00000000)
		(-0.34000000 0.06903028 0.00000000)
		(-0.32000000 0.06903028 0.00000000)
		(-0.30000000 0.06903028 0.00000000)
		(-0.28000000 0.06903028 0.00000000)
		(-0.26000000 0.06903028 0.00000000)
		(-0.24000000 0.06903028 0.00000000)
		(-0.22000000 0.06903028 0.00000000)
		(-0.20000000 0.06903028 0.00000000)
		(-0.18000000 0.06903028 0.00000000)
		(-0.16000000 0.06903028 0.00000000)
		(-0.14000000 0.06903028 0.00000000)
		(-0.12000000 0.06903028 0.00000000)
		(-0.10000000 0.06903028 0.00000000)
		(-0.08162011 0.06975591 0.00000000)
		(-0.06324022 0.07193280 0.00000000)
		(-0.04486034 0.07556094 0.00000000)
		(-0.02648045 0.08064035 0.00000000)
		(-0.00810056 0.08717101 0.00000000)
		(0.01027933 0.09515294 0.00000000)
		(0.02865922 0.10458612 0.00000000)
		(0.04703911 0.11547056 0.00000000)
		(0.06541899 0.12780625 0.00000000)
		(0.08379888 0.14159321 0.00000000)
		(0.10055866 0.15457277 0.00000000)
		(0.11731844 0.16691012 0.00000000)
		(0.13407821 0.17855400 0.00000000)
		(0.15083799 0.18945603 0.00000000)
		(0.16759777 0.19957093 0.00000000)
		(0.18435754 0.20885666 0.00000000)
		(0.20111732 0.21727464 0.00000000)
		(0.21787709 0.22478991 0.00000000)
		(0.23463687 0.23137123 0.00000000)
		(0.25139665 0.23699127 0.00000000)
		(0.26815642 0.24162667 0.00000000)
		(0.28491620 0.24525818 0.00000000)
		(0.30167598 0.24787070 0.00000000)
		(0.31843575 0.24945338 0.00000000)
		(0.33519553 0.24999965 0.00000000)
		(0.35195531 0.24950724 0.00000000)
		(0.36871508 0.24797819 0.00000000)
		(0.38547486 0.24541885 0.00000000)
		(0.40223464 0.24183987 0.00000000)
		(0.41899441 0.23725610 0.00000000)
		(0.43575419 0.23168660 0.00000000)
		(0.45251397 0.22515450 0.00000000)
		(0.46927374 0.21768694 0.00000000)
		(0.48603352 0.20931495 0.00000000)
		(0.50279330 0.20007331 0.00000000)
		(0.51955307 0.19000042 0.00000000)
		(0.53631285 0.17913812 0.00000000)
		(0.55307263 0.16753156 0.00000000)
		(0.56983240 0.15522894 0.00000000)
		(0.58659218 0.14228139 0.00000000)
		(0.60335196 0.12874270 0.00000000)
		(0.62011173 0.11466912 0.00000000)
		(0.63687151 0.10011911 0.00000000)
		(0.65363128 0.08515314 0.00000000)
		(0.67039106 0.06983337 0.00000000)
		(0.68715084 0.05422347 0.00000000)
		(0.70391061 0.03838829 0.00000000)
		(0.72067039 0.02239361 0.00000000)
		(0.73743017 0.00630589 0.00000000)
		(0.75418994 -0.00980803 0.00000000)
		(0.77094972 -0.02588120 0.00000000)
		(0.78770950 -0.04184684 0.00000000)
		(0.80446927 -0.05763861 0.00000000)
		(0.82122905 -0.07319092 0.00000000)
		(0.83798883 -0.08843913 0.00000000)
		(0.85474860 -0.10331990 0.00000000)
		(0.87150838 -0.11777141 0.00000000)
		(0.88826816 -0.13173360 0.00000000)
		(0.90502793 -0.14514848 0.00000000)
		(0.92178771 -0.15796030 0.00000000)
		(0.93854749 -0.17011584 0.00000000)
		(0.95530726 -0.18156460 0.00000000)
		(0.97206704 -0.19225900 0.00000000)
		(0.98882682 -0.20215461 0.00000000)
		(1.00558659 -0.21121033 0.00000000)
		(1.02234637 -0.21938852 0.00000000)
		(1.03910615 -0.22665521 0.00000000)
		(1.05586592 -0.23298020 0.00000000)
		(1.07262570 -0.23833723 0.00000000)
		(1.08938547 -0.24270402 0.00000000)
		(1.10614525 -0.24606245 0.00000000)
		(1.12290503 -0.24839855 0.00000000)
		(1.13966480 -0.24970262 0.00000000)
		(1.15642458 -0.24996924 0.00000000)
		(1.17318436 -0.24919730 0.00000000)
		(1.18994413 -0.24739001 0.00000000)
		(1.20670391 -0.24455489 0.00000000)
		(1.22346369 -0.24070370 0.00000000)
		(1.24022346 -0.23585245 0.00000000)
		(1.25698324 -0.23002130 0.00000000)
		(1.27374302 -0.22323446 0.00000000)
		(1.29050279 -0.21552015 0.00000000)
		(1.30726257 -0.20691041 0.00000000)
		(1.32402235 -0.19744101 0.00000000)
		(1.34078212 -0.18715129 0.00000000)
		(1.35754190 -0.17608401 0.00000000)
		(1.37430168 -0.16428515 0.00000000)
		(1.39106145 -0.15180372 0.00000000)
		(1.40782123 -0.13869159 0.00000000)
		(1.42458101 -0.12500323 0.00000000)
		(1.44134078 -0.11079552 0.00000000)
		(1.45810056 -0.09612748 0.00000000)
		(1.47486034 -0.08106005 0.00000000)
		(1.49162011 -0.06565585 0.00000000)
		(1.50837989 -0.04997886 0.00000000)
		(1.52513966 -0.03409422 0.00000000)
		(1.54189944 -0.01806793 0.00000000)
		(1.55865922 -0.00196657 0.00000000)
		(1.57541899 0.01414296 0.00000000)
		(1.59217877 0.03019373 0.00000000)
		(1.60893855 0.04611905 0.00000000)
		(1.62569832 0.06185276 0.00000000)
		(1.64245810 0.07732949 0.00000000)
		(1.65921788 0.09248494 0.00000000)
		(1.67597765 0.10725613 0.00000000)
		(1.69273743 0.12158170 0.00000000)
		(1.70949721 0.13540213 0.00000000)
		(1.72625698 0.14866001 0.00000000)
		(1.74301676 0.16130024 0.00000000)
		(1.75977654 0.17327030 0.00000000)
		(1.77653631 0.18452048 0.00000000)
		(1.79329609 0.19500402 0.00000000)
		(1.81005587 0.20467737 0.00000000)
		(1.82681564 0.21350034 0.00000000)
		(1.84357542 0.22143627 0.00000000)
		(1.86033520 0.22845220 0.00000000)
		(1.87709497 0.23451896 0.00000000)
		(1.89385475 0.23961136 0.00000000)
		(1.91061453 0.24370824 0.00000000)
		(1.92737430 0.24679257 0.00000000)
		(1.94413408 0.24885154 0.00000000)
		(1.96089385 0.24987660 0.00000000)
		(1.97765363 0.24986349 0.00000000)
		(1.99441341 0.24881226 0.00000000)
		(2.01117318 0.24672729 0.00000000)
		(2.02793296 0.24361722 0.00000000)
		(2.04469274 0.23949499 0.00000000)
		(2.06145251 0.23437772 0.00000000)
		(2.07821229 0.22828668 0.00000000)
		(2.09497207 0.22124716 0.00000000)
		(2.11173184 0.21328842 0.00000000)
		(2.12849162 0.20444352 0.00000000)
		(2.14525140 0.19474921 0.00000000)
		(2.16201117 0.18424577 0.00000000)
		(2.17877095 0.17297683 0.00000000)
		(2.19553073 0.16098922 0.00000000)
		(2.21229050 0.14833275 0.00000000)
		(2.22905028 0.13505999 0.00000000)
		(2.24581006 0.12122609 0.00000000)
		(2.26256983 0.10688853 0.00000000)
		(2.27932961 0.09210688 0.00000000)
		(2.29608939 0.07694254 0.00000000)
		(2.31284916 0.06145853 0.00000000)
		(2.32960894 0.04571918 0.00000000)
		(2.34636872 0.02978987 0.00000000)
		(2.36312849 0.01373680 0.00000000)
		(2.37988827 -0.00237335 0.00000000)
		(2.39664804 -0.01847363 0.00000000)
		(2.41340782 -0.03449717 0.00000000)
		(2.43016760 -0.05037738 0.00000000)
		(2.44692737 -0.06604828 0.00000000)
		(2.46368715 -0.08144477 0.00000000)
		(2.48044693 -0.09650287 0.00000000)
		(2.49720670 -0.11116004 0.00000000)
		(2.51396648 -0.12535536 0.00000000)
		(2.53072626 -0.13902986 0.00000000)
		(2.54748603 -0.15212673 0.00000000)
		(2.56424581 -0.16459156 0.00000000)
		(2.58100559 -0.17637255 0.00000000)
		(2.59776536 -0.18742076 0.00000000)
		(2.61452514 -0.19769028 0.00000000)
		(2.63128492 -0.20713845 0.00000000)
		(2.64804469 -0.21572602 0.00000000)
		(2.66480447 -0.22341730 0.00000000)
		(2.68156425 -0.23018034 0.00000000)
		(2.69832402 -0.23598704 0.00000000)
		(2.71508380 -0.24081328 0.00000000)
		(2.73184358 -0.24463900 0.00000000)
		(2.74860335 -0.24744831 0.00000000)
		(2.76536313 -0.24922954 0.00000000)
		(2.78212291 -0.24997529 0.00000000)
		(2.79888268 -0.24968245 0.00000000)
		(2.81564246 -0.24835225 0.00000000)
		(2.83240223 -0.24599021 0.00000000)
		(2.84916201 -0.24260614 0.00000000)
		(2.86592179 -0.23821411 0.00000000)
		(2.88268156 -0.23283236 0.00000000)
		(2.89944134 -0.22648326 0.00000000)
		(2.91620112 -0.21919318 0.00000000)
		(2.93296089 -0.21099240 0.00000000)
		(2.95166480 -0.20316918 0.00000000)
		(2.97036872 -0.19616945 0.00000000)
		(2.98907263 -0.18999322 0.00000000)
		(3.00777654 -0.18464048 0.00000000)
		(3.02648045 -0.18011124 0.00000000)
		(3.04518436 -0.17640551 0.00000000)
		(3.06388827 -0.17352326 0.00000000)
		(3.08259218 -0.17146452 0.00000000)
		(3.10129609 -0.17022927 0.00000000)
		(3.12000000 -0.16981753 0.00000000)
		(3.14000000 -0.16981753 0.00000000)
		(3.16000000 -0.16981753 0.00000000)
		(3.18000000 -0.16981753 0.00000000)
		(3.20000000 -0.16981753 0.00000000)
		(3.22000000 -0.16981753 0.00000000)
		(3.24000000 -0.16981753 0.00000000)
		(3.26000000 -0.16981753 0.00000000)
		(3.28000000 -0.16981753 0.00000000)
		(3.30000000 -0.16981753 0.00000000)
		(3.32000000 -0.16981753 0.00000000)
		(3.34000000 -0.16981753 0.00000000)
		(3.36000000 -0.16981753 0.00000000)
		(3.38000000 -0.16981753 0.00000000)
		(3.40000000 -0.16981753 0.00000000)
		(3.42000000 -0.16981753 0.00000000)
		(3.44000000 -0.16981753 0.00000000)
		(3.46000000 -0.16981753 0.00000000)
		(3.48000000 -0.16981753 0.00000000)
		(3.50000000 -0.16981753 0.00000000)
		(3.52000000 -0.16981753 0.00000000)
		(3.54000000 -0.16981753 0.00000000)
		(3.56000000 -0.16981753 0.00000000)
		(3.58000000 -0.16981753 0.00000000)
		(3.60000000 -0.16981753 0.00000000)
		(3.62000000 -0.16981753 0.00000000)
		(3.64000000 -0.16981753 0.00000000)
		(3.66000000 -0.16981753 0.00000000)
		(3.68000000 -0.16981753 0.00000000)
		(3.70000000 -0.16981753 0.00000000)
		(3.72000000 -0.16981753 0.00000000)
		(3.74000000 -0.16981753 0.00000000)
		(3.76000000 -0.16981753 0.00000000)
		(3.78000000 -0.16981753 0.00000000)
		(3.80000000 -0.16981753 0.00000000)
		(3.82000000 -0.16981753 0.00000000)
		(3.84000000 -0.16981753 0.00000000)
		(3.86000000 -0.16981753 0.00000000)
		(3.88000000 -0.16981753 0.00000000)
		(3.90000000 -0.16981753 0.00000000)
		(3.92000000 -0.16981753 0.00000000)
		(3.94000000 -0.16981753 0.00000000)
		(3.96000000 -0.16981753 0.00000000)
		(3.98000000 -0.16981753 0.00000000)
		(4.00000000 -0.16981753 0.00000000)
	)
	polyLine 4 5
	(
		(-1.00000000 0.06903028 0.10000000)
		(-0.98000000 0.06903028 0.10000000)
		(-0.96000000 0.06903028 0.10000000)
		(-0.94000000 0.06903028 0.10000000)
		(-0.92000000 0.06903028 0.10000000)
		(-0.90000000 0.06903028 0.10000000)
		(-0.88000000 0.06903028 0.10000000)
		(-0.86000000 0.06903028 0.10000000)
		(-0.84000000 0.06903028 0.10000000)
		(-0.82000000 0.06903028 0.10000000)
		(-0.80000000 0.06903028 0.10000000)
		(-0.78000000 0.06903028 0.10000000)
		(-0.76000000 0.06903028 0.10000000)
		(-0.74000000 0.06903028 0.10000000)
		(-0.72000000 0.06903028 0.10000000)
		(-0.70000000 0.06903028 0.10000000)
		(-0.68000000 0.06903028 0.10000000)
		(-0.66000000 0.06903028 0.10000000)
		(-0.64000000 0.06903028 0.10000000)
		(-0.62000000 0.06903028 0.10000000)
		(-0.60000000 0.06903028 0.10000000)
		(-0.58000000 0.06903028 0.10000000)
		(-0.56000000 0.06903028 0.10000000)
		(-0.54000000 0.06903028 0.10000000)
		(-0.52000000 0.06903028 0.10000000)
		(-0.50000000 0.06903028 0.10000000)
		(-0.48000000 0.06903028 0.10000000)
		(-0.46000000 0.06903028 0.10000000)
		(-0.44000000 0.06903028 0.10000000)
		(-0.42000000 0.06903028 0.10000000)
		(-0.40000000 0.06903028 0.10000000)
		(-0.38000000 0.06903028 0.10000000)
		(-0.36000000 0.06903028 0.10000000)
		(-0.34000000 0.06903028 0.10000000)
		(-0.32000000 0.06903028 0.10000000)
		(-0.30000000 0.06903028 0.10000000)
		(-0.28000000 0.06903028 0.10000000)
		(-0.26000000 0.06903028 0.10000000)
		(-0.24000000 0.06903028 0.10000000)
		(-0.22000000 0.06903028 0.10000000)
		(-0.20000000 0.06903028 0.10000000)
		(-0.18000000 0.06903028 0.10000000)
		(-0.16000000 0.06903028 0.10000000)
		(-0.14000000 0.06903028 0.10000000)
		(-0.12000000 0.06903028 0.10000000)
		(-0.10000000 0.06903028 0.10000000)
		(-0.08162011 0.06975591 0.10000000)
		(-0.06324022 0.07193280 0.10000000)
		(-0.04486034 0.07556094 0.10000000)
		(-0.02648045 0.08064035 0.10000000)
		(-0.00810056 0.08717101 0.10000000)
		(0.01027933 0.09515294 0.10000000)
		(0.02865922 0.10458612 0.10000000)
		(0.04703911 0.11547056 0.10000000)
		(0.06541899 0.12780625 0.10000000)
		(0.08379888 0.14159321 0.10000000)
		(0.10055866 0.15457277 0.10000000)
		(0.11731844 0.16691012 0.10000000)
		(0.13407821 0.17855400 0.10000000)
		(0.15083799 0.18945603 0.10000000)
		(0.16759777 0.19957093 0.10000000)
		(0.18435754 0.20885666 0.10000000)
		(0.20111732 0.21727464 0.10000000)
		(0.21787709 0.22478991 0.10000000)
		(0.23463687 0.23137123 0.10000000)
		(0.25139665 0.23699127 0.10000000)
		(0.26815642 0.24162667 0.10000000)
		(0.28491620 0.24525818 0.10000000)
		(0.30167598 0.24787070 0.10000000)
		(0.31843575 0.24945338 0.10000000)
		(0.33519553 0.24999965 0.10000000)
		(0.35195531 0.24950724 0.10000000)
		(0.36871508 0.24797819 0.10000000)
		(0.38547486 0.24541885 0.10000000)
		(0.40223464 0.24183987 0.10000000)
		(0.41899441 0.23725610 0.10000000)
		(0.43575419 0.23168660 0.10000000)
		(0.45251397 0.22515450 0.10000000)
		(0.46927374 0.21768694 0.10000000)
		(0.48603352 0.20931495 0.10000000)
		(0.50279330 0.20007331 0.10000000)
		(0.51955307 0.19000042 0.10000000)
		(0.53631285 0.17913812 0.10000000)
		(0.55307263 0.16753156 0.10000000)
		(0.56983240 0.15522894 0.10000000)
		(0.58659218 0.14228139 0.10000000)
		(0.60335196 0.12874270 0.10000000)
		(0.62011173 0.11466912 0.10000000)
		(0.63687151 0.10011911 0.10000000)
		(0.65363128 0.08515314 0.10000000)
		(0.67039106 0.06983337 0.10000000)
		(0.68715084 0.05422347 0.10000000)
		(0.70391061 0.03838829 0.10000000)
		(0.72067039 0.02239361 0.10000000)
		(0.73743017 0.00630589 0.10000000)
		(0.75418994 -0.00980803 0.10000000)
		(0.77094972 -0.02588120 0.10000000)
		(0.78770950 -0.04184684 0.10000000)
		(0.80446927 -0.05763861 0.10000000)
		(0.82122905 -0.07319092 0.10000000)
		(0.83798883 -0.08843913 0.10000000)
		(0.85474860 -0.10331990 0.10000000)
		(0.87150838 -0.11777141 0.10000000)
		(0.88826816 -0.13173360 0.10000000)
		(0.90502793 -0.14514848 0.10000000)
		(0.92178771 -0.15796030 0.10000000)
		(0.93854749 -0.17011584 0.10000000)
		(0.95530726 -0.18156460 0.10000000)
		(0.97206704 -0.19225900 0.10000000)
		(0.98882682 -0.20215461 0.10000000)
		(1.00558659 -0.21121033 0.10000000)
		(1.02234637 -0.21938852 0.10000000)
		(1.03910615 -0.22665521 0.10000000)
		(1.05586592 -0.23298020 0.10000000)
		(1.07262570 -0.23833723 0.10000000)
		(1.08938547 -0.24270402 0.10000000)
		(1.10614525 -0.24606245 0.10000000)
		(1.12290503 -0.24839855 0.10000000)
		(1.13966480 -0.24970262 0.10000000)
		(1.15642458 -0.24996924 0.10000000)
		(1.17318436 -0.24919730 0.10000000)
		(1.18994413 -0.24739001 0.10000000)
		(1.20670391 -0.24455489 0.10000000)
		(1.22346369 -0.24070370 0.10000000)
		(1.24022346 -0.23585245 0.10000000)
		(1.25698324 -0.23002130 0.10000000)
		(1.27374302 -0.22323446 0.10000000)
		(1.29050279 -0.21552015 0.10000000)
		(1.30726257 -0.20691041 0.10000000)
		(1.32402235 -0.19744101 0.10000000)
		(1.34078212 -0.18715129 0.10000000)
		(1.35754190 -0.17608401 0.10000000)
		(1.37430168 -0.16428515 0.10000000)
		(1.39106145 -0.15180372 0.10000000)
		(1.40782123 -0.13869159 0.10000000)
		(1.42458101 -0.12500323 0.10000000)
		(1.44134078 -0.11079552 0.10000000)
		(1.45810056 -0.09612748 0.10000000)
		(1.47486034 -0.08106005 0.10000000)
		(1.49162011 -0.06565585 0.10000000)
		(1.50837989 -0.04997886 0.10000000)
		(1.52513966 -0.03409422 0.10000000)
		(1.54189944 -0.01806793 0.10000000)
		(1.55865922 -0.00196657 0.10000000)
		(1.57541899 0.01414296 0.10000000)
		(1.59217877 0.03019373 0.10000000)
		(1.60893855 0.04611905 0.10000000)
		(1.62569832 0.06185276 0.10000000)
		(1.64245810 0.07732949 0.10000000)
		(1.65921788 0.09248494 0.10000000)
		(1.67597765 0.10725613 0.10000000)
		(1.69273743 0.12158170 0.10000000)
		(1.70949721 0.13540213 0.10000000)
		(1.72625698 0.14866001 0.10000000)
		(1.74301676 0.16130024 0.10000000)
		(1.75977654 0.17327030 0.10000000)
		(1.77653631 0.18452048 0.10000000)
		(1.79329609 0.19500402 0.10000000)
		(1.81005587 0.20467737 0.10000000)
		(1.82681564 0.21350034 0.10000000)
		(1.84357542 0.22143627 0.10000000)
		(1.86033520 0.22845220 0.10000000)
		(1.87709497 0.23451896 0.10000000)
		(1.89385475 0.23961136 0.10000000)
		(1.91061453 0.24370824 0.10000000)
		(1.92737430 0.24679257 0.10000000)
		(1.94413408 0.24885154 0.10000000)
		(1.96089385 0.24987660 0.10000000)
		(1.97765363 0.24986349 0.10000000)
		(1.99441341 0.24881226 0.10000000)
		(2.01117318 0.24672729 0.10000000)
		(2.02793296 0.24361722 0.10000000)
		(2.04469274 0.23949499 0.10000000)
		(2.06145251 0.23437772 0.10000000)
		(2.07821229 0.22828668 0.10000000)
		(2.09497207 0.22124716 0.10000000)
		(2.11173184 0.21328842 0.10000000)
		(2.12849162 0.20444352 0.10000000)
		(2.14525140 0.19474921 0.10000000)
		(2.16201117 0.18424577 0.10000000)
		(2.17877095 0.17297683 0.10000000)
		(2.19553073 0.16098922 0.10000000)
		(2.21229050 0.14833275 0.10000000)
		(2.22905028 0.13505999 0.10000000)
		(2.24581006 0.12122609 0.10000000)
		(2.26256983 0.10688853 0.10000000)
		(2.27932961 0.09210688 0.10000000)
		(2.29608939 0.07694254 0.10000000)
		(2.31284916 0.06145853 0.10000000)
		(2.32960894 0.04571918 0.10000000)
		(2.34636872 0.02978987 0.10000000)
		(2.36312849 0.01373680 0.10000000)
		(2.37988827 -0.00237335 0.10000000)
		(2.39664804 -0.01847363 0.10000000)
		(2.41340782 -0.03449717 0.10000000)
		(2.43016760 -0.05037738 0.10000000)
		(2.44692737 -0.06604828 0.10000000)
		(2.46368715 -0.08144477 0.10000000)
		(2.48044693 -0.09650287 0.10000000)
		(2.49720670 -0.11116004 0.10000000)
		(2.51396648 -0.12535536 0.10000000)
		(2.53072626 -0.13902986 0.10000000)
		(2.54748603 -0.15212673 0.10000000)
		(2.56424581 -0.16459156 0.10000000)
		(2.58100559 -0.17637255 0.10000000)
		(2.59776536 -0.18742076 0.10000000)
		(2.61452514 -0.19769028 0.10000000)
		(2.63128492 -0.20713845 0.10000000)
		(2.64804469 -0.21572602 0.10000000)
		(2.66480447 -0.22341730 0.10000000)
		(2.68156425 -0.23018034 0.10000000)
		(2.69832402 -0.23598704 0.10000000)
		(2.71508380 -0.24081328 0.10000000)
		(2.73184358 -0.24463900 0.10000000)
		(2.74860335 -0.24744831 0.10000000)
		(2.76536313 -0.24922954 0.10000000)
		(2.78212291 -0.24997529 0.10000000)
		(2.79888268 -0.24968245 0.10000000)
		(2.81564246 -0.24835225 0.10000000)
		(2.83240223 -0.24599021 0.10000000)
		(2.84916201 -0.24260614 0.10000000)
		(2.86592179 -0.23821411 0.10000000)
		(2.88268156 -0.23283236 0.10000000)
		(2.89944134 -0.22648326 0.10000000)
		(2.91620112 -0.21919318 0.10000000)
		(2.93296089 -0.21099240 0.10000000)
		(2.95166480 -0.20316918 0.10000000)
		(2.97036872 -0.19616945 0.10000000)
		(2.98907263 -0.18999322 0.10000000)
		(3.00777654 -0.18464048 0.10000000)
		(3.02648045 -0.18011124 0.10000000)
		(3.04518436 -0.17640551 0.10000000)
		(3.06388827 -0.17352326 0.10000000)
		(3.08259218 -0.17146452 0.10000000)
		(3.10129609 -0.17022927 0.10000000)
		(3.12000000 -0.16981753 0.10000000)
		(3.14000000 -0.16981753 0.10000000)
		(3.16000000 -0.16981753 0.10000000)
		(3.18000000 -0.16981753 0.10000000)
		(3.20000000 -0.16981753 0.10000000)
		(3.22000000 -0.16981753 0.10000000)
		(3.24000000 -0.16981753 0.10000000)
		(3.26000000 -0.16981753 0.10000000)
		(3.28000000 -0.16981753 0.10000000)
		(3.30000000 -0.16981753 0.10000000)
		(3.32000000 -0.16981753 0.10000000)
		(3.34000000 -0.16981753 0.10000000)
		(3.36000000 -0.16981753 0.10000000)
		(3.38000000 -0.16981753 0.10000000)
		(3.40000000 -0.16981753 0.10000000)
		(3.42000000 -0.16981753 0.10000000)
		(3.44000000 -0.16981753 0.10000000)
		(3.46000000 -0.16981753 0.10000000)
		(3.48000000 -0.16981753 0.10000000)
		(3.50000000 -0.16981753 0.10000000)
		(3.52000000 -0.16981753 0.10000000)
		(3.54000000 -0.16981753 0.10000000)
		(3.56000000 -0.16981753 0.10000000)
		(3.58000000 -0.16981753 0.10000000)
		(3.60000000 -0.16981753 0.10000000)
		(3.62000000 -0.16981753 0.10000000)
		(3.64000000 -0.16981753 0.10000000)
		(3.66000000 -0.16981753 0.10000000)
		(3.68000000 -0.16981753 0.10000000)
		(3.70000000 -0.16981753 0.10000000)
		(3.72000000 -0.16981753 0.10000000)
		(3.74000000 -0.16981753 0.10000000)
		(3.76000000 -0.16981753 0.10000000)
		(3.78000000 -0.16981753 0.10000000)
		(3.80000000 -0.16981753 0.10000000)
		(3.82000000 -0.16981753 0.10000000)
		(3.84000000 -0.16981753 0.10000000)
		(3.86000000 -0.16981753 0.10000000)
		(3.88000000 -0.16981753 0.10000000)
		(3.90000000 -0.16981753 0.10000000)
		(3.92000000 -0.16981753 0.10000000)
		(3.94000000 -0.16981753 0.10000000)
		(3.96000000 -0.16981753 0.10000000)
		(3.98000000 -0.16981753 0.10000000)
		(4.00000000 -0.16981753 0.10000000)
	)
	polyLine 3 2
	(
		(-1.00000000 0.56903028 0.00000000)
		(-0.98000000 0.57015050 0.00000000)
		(-0.96000000 0.57127072 0.00000000)
		(-0.94000000 0.57239093 0.00000000)
		(-0.92000000 0.57351115 0.00000000)
		(-0.90000000 0.57463137 0.00000000)
		(-0.88000000 0.57575158 0.00000000)
		(-0.86000000 0.57687180 0.00000000)
		(-0.84000000 0.57799202 0.00000000)
		(-0.82000000 0.57911224 0.00000000)
		(-0.80000000 0.58023245 0.00000000)
		(-0.78000000 0.58135267 0.00000000)
		(-0.76000000 0.58247289 0.00000000)
		(-0.74000000 0.58359310 0.00000000)
		(-0.72000000 0.58471332 0.00000000)
		(-0.70000000 0.58583354 0.00000000)
		(-0.68000000 0.58695376 0.00000000)
		(-0.66000000 0.58807397 0.00000000)
		(-0.64000000 0.58919419 0.00000000)
		(-0.62000000 0.59031441 0.00000000)
		(-0.60000000 0.59143462 0.00000000)
		(-0.58000000 0.59255484 0.00000000)
		(-0.56000000 0.59367506 0.00000000)
		(-0.54000000 0.59479528 0.00000000)
		(-0.52000000 0.59591549 0.00000000)
		(-0.50000000 0.59703571 0.00000000)
		(-0.48000000 0.59815593 0.00000000)
		(-0.46000000 0.59927614 0.00000000)
		(-0.44000000 0.60039636 0.00000000)
		(-0.42000000 0.60151658 0.00000000)
		(-0.40000000 0.60263680 0.00000000)
		(-0.38000000 0.60375701 0.00000000)
		(-0.36000000 0.60487723 0.00000000)
		(-0.34000000 0.60599745 0.00000000)
		(-0.32000000 0.60711767 0.00000000)
		(-0.30000000 0.60823788 0.00000000)
		(-0.28000000 0.60935810 0.00000000)
		(-0.26000000 0.61047832 0.00000000)
		(-0.24000000 0.61159853 0.00000000)
		(-0.22000000 0.61271875 0.00000000)
		(-0.20000000 0.61383897 0.00000000)
		(-0.18000000 0.61495919 0.00000000)
		(-0.16000000 0.61607940 0.00000000)
		(-0.14000000 0.61719962 0.00000000)
		(-0.12000000 0.61831984 0.00000000)
		(-0.10000000 0.61944005 0.00000000)
		(-0.08162011 0.61935078 0.00000000)
		(-0.06324022 0.62227565 0.00000000)
		(-0.04486034 0.62821466 0.00000000)
		(-0.02648045 0.63716780 0.00000000)
		(-0.00810056 0.64913508 0.00000000)
		(0.01027933 0.66411650 0.00000000)
		(0.02865922 0.68211205 0.00000000)
		(0.04703911 0.70312175 0.00000000)
		(0.06541899 0.72714558 0.00000000)
		(0.08379888 0.75418354 0.00000000)
		(0.10055866 0.77748402 0.00000000)
		(0.11731844 0.79963163 0.00000000)
		(0.13407821 0.82053435 0.00000000)
		(0.15083799 0.84010533 0.00000000)
		(0.16759777 0.85826326 0.00000000)
		(0.18435754 0.87493270 0.00000000)
		(0.20111732 0.89004440 0.00000000)
		(0.21787709 0.90353556 0.00000000)
		(0.23463687 0.91535014 0.00000000)
		(0.25139665 0.92543905 0.00000000)
		(0.26815642 0.93376037 0.00000000)
		(0.28491620 0.94027953 0.00000000)
		(0.30167598 0.94496944 0.00000000)
		(0.31843575 0.94781062 0.00000000)
		(0.33519553 0.94879127 0.00000000)
		(0.35195531 0.94790731 0.00000000)
		(0.36871508 0.94516240 0.00000000)
		(0.38547486 0.94056797 0.00000000)
		(0.40223464 0.93414309 0.00000000)
		(0.41899441 0.92591446 0.00000000)
		(0.43575419 0.91591627 0.00000000)
		(0.45251397 0.90419005 0.00000000)
		(0.46927374 0.89078454 0.00000000)
		(0.48603352 0.87575541 0.00000000)
		(0.50279330 0.85916512 0.00000000)
		(0.51955307 0.84108259 0.00000000)
		(0.53631285 0.82158295 0.00000000)
		(0.55307263 0.80074722 0.00000000)
		(0.56983240 0.77866197 0.00000000)
		(0.58659218 0.75541894 0.00000000)
		(0.60335196 0.73111472 0.00000000)
		(0.62011173 0.70585028 0.00000000)
		(0.63687151 0.67973058 0.00000000)
		(0.65363128 0.65286415 0.00000000)
		(0.67039106 0.62536261 0.00000000)
		(0.68715084 0.59734022 0.00000000)
		(0.70391061 0.56891341 0.00000000)
		(0.72067039 0.54020028 0.00000000)
		(0.73743017 0.51132013 0.00000000)
		(0.75418994 0.48239294 0.00000000)
		(0.77094972 0.45353891 0.00000000)
		(0.78770950 0.42487792 0.00000000)
		(0.80446927 0.39652903 0.00000000)
		(0.82122905 0.36861004 0.00000000)
		(0.83798883 0.34123694 0.00000000)
		(0.85474860 0.31452346 0.00000000)
		(0.87150838 0.28858059 0.00000000)
		(0.88826816 0.26351611 0.00000000)
		(0.90502793 0.23943415 0.00000000)
		(0.92178771 0.21643478 0.00000000)
		(0.93854749 0.19461355 0.00000000)
		(0.95530726 0.17406112 0.00000000)
		(0.97206704 0.15486288 0.00000000)
		(0.98882682 0.13709860 0.00000000)
		(1.00558659 0.12084207 0.00000000)
		(1.02234637 0.10616085 0.00000000)
		(1.03910615 0.09311592 0.00000000)
		(1.05586592 0.08176149 0.00000000)
		(1.07262570 0.07214473 0.00000000)
		(1.08938547 0.06430560 0.00000000)
		(1.10614525 0.05827667 0.00000000)
		(1.12290503 0.05408298 0.00000000)
		(1.13966480 0.05174196 0.00000000)
		(1.15642458 0.05126333 0.00000000)
		(1.17318436 0.05264908 0.00000000)
		(1.18994413 0.05589347 0.00000000)
		(1.20670391 0.06098299 0.00000000)
		(1.22346369 0.06789652 0.00000000)
		(1.24022346 0.07660533 0.00000000)
		(1.25698324 0.08707323 0.00000000)
		(1.27374302 0.09925673 0.00000000)
		(1.29050279 0.11310521 0.00000000)
		(1.30726257 0.12856114 0.00000000)
		(1.32402235 0.14556030 0.00000000)
		(1.34078212 0.16403207 0.00000000)
		(1.35754190 0.18389969 0.00000000)
		(1.37430168 0.20508063 0.00000000)
		(1.39106145 0.22748688 0.00000000)
		(1.40782123 0.25102535 0.00000000)
		(1.42458101 0.27559825 0.00000000)
		(1.44134078 0.30110348 0.00000000)
		(1.45810056 0.32743507 0.00000000)
		(1.47486034 0.35448362 0.00000000)
		(1.49162011 0.38213675 0.00000000)
		(1.50837989 0.41027958 0.00000000)
		(1.52513966 0.43879516 0.00000000)
		(1.54189944 0.46756504 0.00000000)
		(1.55865922 0.49646968 0.00000000)
		(1.57541899 0.52538899 0.00000000)
		(1.59217877 0.55420281 0.00000000)
		(1.60893855 0.58279143 0.00000000)
		(1.62569832 0.61103608 0.00000000)
		(1.64245810 0.63881940 0.00000000)
		(1.65921788 0.66602596 0.00000000)
		(1.67597765 0.69254273 0.00000000)
		(1.69273743 0.71825953 0.00000000)
		(1.70949721 0.74306952 0.00000000)
		(1.72625698 0.76686963 0.00000000)
		(1.74301676 0.78956095 0.00000000)
		(1.75977654 0.81104923 0.00000000)
		(1.77653631 0.83124518 0.00000000)
		(1.79329609 0.85006490 0.00000000)
		(1.81005587 0.86743018 0.00000000)
		(1.82681564 0.88326889 0.00000000)
		(1.84357542 0.89751522 0.00000000)
		(1.86033520 0.91010998 0.00000000)
		(1.87709497 0.92100084 0.00000000)
		(1.89385475 0.93014254 0.00000000)
		(1.91061453 0.93749712 0.00000000)
		(1.92737430 0.94303402 0.00000000)
		(1.94413408 0.94673022 0.00000000)
		(1.96089385 0.94857038 0.00000000)
		(1.97765363 0.94854684 0.00000000)
		(1.99441341 0.94665971 0.00000000)
		(2.01117318 0.94291683 0.00000000)
		(2.02793296 0.93733374 0.00000000)
		(2.04469274 0.92993365 0.00000000)
		(2.06145251 0.92074729 0.00000000)
		(2.07821229 0.90981284 0.00000000)
		(2.09497207 0.89717573 0.00000000)
		(2.11173184 0.88288845 0.00000000)
		(2.12849162 0.86701037 0.00000000)
		(2.14525140 0.84960746 0.00000000)
		(2.16201117 0.83075203 0.00000000)
		(2.17877095 0.81052240 0.00000000)
		(2.19553073 0.78900264 0.00000000)
		(2.21229050 0.76628214 0.00000000)
		(2.22905028 0.74245532 0.00000000)
		(2.24581006 0.71762115 0.00000000)
		(2.26256983 0.69188283 0.00000000)
		(2.27932961 0.66534728 0.00000000)
		(2.29608939 0.63812476 0.00000000)
		(2.31284916 0.61032837 0.00000000)
		(2.32960894 0.58207359 0.00000000)
		(2.34636872 0.55347782 0.00000000)
		(2.36312849 0.52465986 0.00000000)
		(2.37988827 0.49573944 0.00000000)
		(2.39664804 0.46683673 0.00000000)
		(2.41340782 0.43807180 0.00000000)
		(2.43016760 0.40956417 0.00000000)
		(2.44692737 0.38143227 0.00000000)
		(2.46368715 0.35379300 0.00000000)
		(2.48044693 0.32676117 0.00000000)
		(2.49720670 0.30044911 0.00000000)
		(2.51396648 0.27496612 0.00000000)