/*--------------------------------*- C++ -*----------------------------------*\\
/*--------------------------------*- C++ -*----------------------------------*\\
| =========                 |                                                 |
| \\\\      /  F ield         | OpenFOAM: The Open Source CFD Toolbox           |
|  \\\\    /   O peration     | Version:  v2012                                 |
|   \\\\  /    A nd           | Website:  www.openfoam.com                      |
|    \\\\/     M anipulation  |                                                 |
\\*---------------------------------------------------------------------------*/
FoamFile
{
    version     2.0;
    format      ascii;
    class       dictionary;
    object      blockMeshDict;
}
// * * * * * * * * * * * * * * * * * * * * * * * * * * * * * * * * * * * * * //

scale   0.01;

xmin -1;
xmax 5;
ymin 0;
ymax 0.5;
zmin 0;
zmax 0.1;

vertices
(
    (-1.00000000 0.21279535 0.00000000)
    (4.00000000 -0.23463858 0.00000000)
    (4.00000000 0.26536142 0.00000000)
    (-1.00000000 0.71279535 0.00000000)
    (-1.00000000 0.21279535 0.10000000)
    (4.00000000 -0.23463858 0.10000000)
    (4.00000000 0.26536142 0.10000000)
    (-1.00000000 0.71279535 0.10000000)
);

blocks
(
    hex (0 1 2 3 4 5 6 7) (200 20 1) simpleGrading (1 1 1)
);

edges
(
	polyLine 0 1
	(
		(-1.00000000 0.21279535 0.00000000)
		(-0.98000000 0.21279535 0.00000000)
		(-0.96000000 0.21279535 0.00000000)
		(-0.94000000 0.21279535 0.00000000)
		(-0.92000000 0.21279535 0.00000000)
		(-0.90000000 0.21279535 0.00000000)
		(-0.88000000 0.21279535 0.00000000)
		(-0.86000000 0.21279535 0.00000000)
		(-0.84000000 0.21279535 0.00000000)
		(-0.82000000 0.21279535 0.00000000)
		(-0.80000000 0.21279535 0.00000000)
		(-0.78000000 0.21279535 0.00000000)
		(-0.76000000 0.21279535 0.00000000)
		(-0.74000000 0.21279535 0.00000000)
		(-0.72000000 0.21279535 0.00000000)
		(-0.70000000 0.21279535 0.00000000)
		(-0.68000000 0.21279535 0.00000000)
		(-0.66000000 0.21279535 0.00000000)
		(-0.64000000 0.21279535 0.00000000)
		(-0.62000000 0.21279535 0.00000000)
		(-0.60000000 0.21279535 0.00000000)
		(-0.58000000 0.21279535 0.00000000)
		(-0.56000000 0.21279535 0.00000000)
		(-0.54000000 0.21279535 0.00000000)
		(-0.52000000 0.21279535 0.00000000)
		(-0.50000000 0.21279535 0.00000000)
		(-0.48000000 0.21279535 0.00000000)
		(-0.46000000 0.21279535 0.00000000)
		(-0.44000000 0.21279535 0.00000000)
		(-0.42000000 0.21279535 0.00000000)
		(-0.40000000 0.21279535 0.00000000)
		(-0.38000000 0.21279535 0.00000000)
		(-0.36000000 0.21279535 0.00000000)
		(-0.34000000 0.21279535 0.00000000)
		(-0.32000000 0.21279535 0.00000000)
		(-0.30000000 0.21279535 0.00000000)
		(-0.28000000 0.21279535 0.00000000)
		(-0.26000000 0.21279535 0.00000000)
		(-0.24000000 0.21279535 0.00000000)
		(-0.22000000 0.21279535 0.00000000)
		(-0.20000000 0.21279535 0.00000000)
		(-0.18000000 0.21279535 0.00000000)
		(-0.16000000 0.21279535 0.00000000)
		(-0.14000000 0.21279535 0.00000000)
		(-0.12000000 0.21279535 0.00000000)
		(-0.10000000 0.21279535 0.00000000)
		(-0.08162011 0.21239072 0.00000000)
		(-0.06324022 0.21117682 0.00000000)
		(-0.04486034 0.20915366 0.00000000)
		(-0.02648045 0.20632124 0.00000000)
		(-0.00810056 0.20267955 0.00000000)
		(0.01027933 0.19822860 0.00000000)
		(0.02865922 0.19296838 0.00000000)
		(0.04703911 0.18689890 0.00000000)
		(0.06541899 0.18002016 0.00000000)
		(0.08379888 0.17233215 0.00000000)
		(0.10055866 0.16277405 0.00000000)
		(0.11731844 0.15278376 0.00000000)
		(0.13407821 0.14238780 0.00000000)
		(0.15083799 0.13161378 0.00000000)
		(0.16759777 0.12049030 0.00000000)
		(0.18435754 0.10904690 0.00000000)
		(0.20111732 0.09731396 0.00000000)
		(0.21787709 0.08532264 0.00000000)
		(0.23463687 0.07310477 0.00000000)
		(0.25139665 0.06069280 0.00000000)
		(0.26815642 0.04811967 0.00000000)
		(0.28491620 0.03541878 0.00000000)
		(0.30167598 0.02262385 0.00000000)
		(0.31843575 0.00976885 0.00000000)
		(0.33519553 -0.00311209 0.00000000)
		(0.35195531 -0.01598477 0.00000000)
		(0.36871508 -0.02881501 0.00000000)
		(0.38547486 -0.04156874 0.00000000)
		(0.40223464 -0.05421209 0.00000000)
		(0.41899441 -0.06671150 0.00000000)
		(0.43575419 -0.07903379 0.00000000)
		(0.45251397 -0.09114622 0.00000000)
		(0.46927374 -0.10301665 0.00000000)
		(0.48603352 -0.11461354 0.00000000)
		(0.50279330 -0.12590613 0.00000000)
		(0.51955307 -0.13686440 0.00000000)
		(0.53631285 -0.14745928 0.00000000)
		(0.55307263 -0.15766264 0.00000000)
		(0.56983240 -0.16744737 0.00000000)
		(0.58659218 -0.17678749 0.00000000)
		(0.60335196 -0.18565822 0.00000000)
		(0.62011173 -0.19403600 0.00000000)
		(0.63687151 -0.20189857 0.00000000)
		(0.65363128 -0.20922507 0.00000000)
		(0.67039106 -0.21599605 0.00000000)
		(0.68715084 -0.22219351 0.00000000)
		(0.70391061 -0.22780102 0.00000000)
		(0.72067039 -0.23280367 0.00000000)
		(0.73743017 -0.23718820 0.00000000)
		(0.75418994 -0.24094294 0.00000000)
		(0.77094972 -0.24405795 0.00000000)
		(0.78770950 -0.24652493 0.00000000)
		(0.80446927 -0.24833736 0.00000000)
		(0.82122905 -0.24949040 0.00000000)
		(0.83798883 -0.24998101 0.00000000)
		(0.85474860 -0.24980787 0.00000000)
		(0.87150838 -0.24897145 0.00000000)
		(0.88826816 -0.24747397 0.00000000)
		(0.90502793 -0.24531941 0.00000000)
		(0.92178771 -0.24251348 0.00000000)
		(0.93854749 -0.23906363 0.00000000)
		(0.95530726 -0.23497903 0.00000000)
		(0.97206704 -0.23027053 0.00000000)
		(0.98882682 -0.22495061 0.00000000)
		(1.00558659 -0.21903341 0.00000000)
		(1.02234637 -0.21253465 0.00000000)
		(1.03910615 -0.20547156 0.00000000)
		(1.05586592 -0.19786292 0.00000000)
		(1.07262570 -0.18972891 0.00000000)
		(1.08938547 -0.18109115 0.00000000)
		(1.10614525 -0.17197255 0.00000000)
		(1.12290503 -0.16239734 0.00000000)
		(1.13966480 -0.15239094 0.00000000)
		(1.15642458 -0.14197991 0.00000000)
		(1.17318436 -0.13119190 0.00000000)
		(1.18994413 -0.12005556 0.00000000)
		(1.20670391 -0.10860045 0.00000000)
		(1.22346369 -0.09685698 0.00000000)
		(1.24022346 -0.08485635 0.00000000)
		(1.25698324 -0.07263040 0.00000000)
		(1.27374302 -0.06021161 0.00000000)
		(1.29050279 -0.04763295 0.00000000)
		(1.30726257 -0.03492781 0.00000000)
		(1.32402235 -0.02212994 0.00000000)
		(1.34078212 -0.00927330 0.00000000)
		(1.35754190 0.00360795 0.00000000)
		(1.37430168 0.01647963 0.00000000)
		(1.39106145 0.02930755 0.00000000)
		(1.40782123 0.04205765 0.00000000)
		(1.42458101 0.05469609 0.00000000)
		(1.44134078 0.06718929 0.00000000)
		(1.45810056 0.07950410 0.00000000)
		(1.47486034 0.09160781 0.00000000)
		(1.49162011 0.10346829 0.00000000)
		(1.50837989 0.11505404 0.00000000)
		(1.52513966 0.12633430 0.00000000)
		(1.54189944 0.13727912 0.00000000)
		(1.55865922 0.14785945 0.00000000)
		(1.57541899 0.15804718 0.00000000)
		(1.59217877 0.16781527 0.00000000)
		(1.60893855 0.17713778 0.00000000)
		(1.62569832 0.18598996 0.00000000)
		(1.64245810 0.19434831 0.00000000)
		(1.65921788 0.20219063 0.00000000)
		(1.67597765 0.20949610 0.00000000)
		(1.69273743 0.21624532 0.00000000)
		(1.70949721 0.22242037 0.00000000)
		(1.72625698 0.22800486 0.00000000)
		(1.74301676 0.23298396 0.00000000)
		(1.75977654 0.23734444 0.00000000)
		(1.77653631 0.24107474 0.00000000)
		(1.79329609 0.24416494 0.00000000)
		(1.81005587 0.24660685 0.00000000)
		(1.82681564 0.24839397 0.00000000)
		(1.84357542 0.24952156 0.00000000)
		(1.86033520 0.24998663 0.00000000)
		(1.87709497 0.24978794 0.00000000)
		(1.89385475 0.24892603 0.00000000)
		(1.91061453 0.24740317 0.00000000)
		(1.92737430 0.24522341 0.00000000)
		(1.94413408 0.24239255 0.00000000)
		(1.96089385 0.23891809 0.00000000)
		(1.97765363 0.23480927 0.00000000)
		(1.99441341 0.23007699 0.00000000)
		(2.01117318 0.22473381 0.00000000)
		(2.02793296 0.21879393 0.00000000)
		(2.04469274 0.21227311 0.00000000)
		(2.06145251 0.20518867 0.00000000)
		(2.07821229 0.19755942 0.00000000)
		(2.09497207 0.18940562 0.00000000)
		(2.11173184 0.18074891 0.00000000)
		(2.12849162 0.17161228 0.00000000)
		(2.14525140 0.16202000 0.00000000)
		(2.16201117 0.15199752 0.00000000)
		(2.17877095 0.14157146 0.00000000)
		(2.19553073 0.13076951 0.00000000)
		(2.21229050 0.11962035 0.00000000)
		(2.22905028 0.10815357 0.00000000)
		(2.24581006 0.09639962 0.00000000)
		(2.26256983 0.08438972 0.00000000)
		(2.27932961 0.07215575 0.00000000)
		(2.29608939 0.05973019 0.00000000)
		(2.31284916 0.04714604 0.00000000)
		(2.32960894 0.03443671 0.00000000)
		(2.34636872 0.02163594 0.00000000)
		(2.36312849 0.00877773 0.00000000)
		(2.37988827 -0.00410379 0.00000000)
		(2.39664804 -0.01697442 0.00000000)
		(2.41340782 -0.02979997 0.00000000)
		(2.43016760 -0.04254640 0.00000000)
		(2.44692737 -0.05517987 0.00000000)
		(2.46368715 -0.06766682 0.00000000)
		(2.48044693 -0.07997410 0.00000000)
		(2.49720670 -0.09206904 0.00000000)
		(2.51396648 -0.10391952 0.00000000)
		(2.53072626 -0.11549407 0.00000000)
		(2.54748603 -0.12676197 0.00000000)
		(2.56424581 -0.13769330 0.00000000)
		(2.58100559 -0.14825903 0.00000000)
		(2.59776536 -0.15843110 0.00000000)
		(2.61452514 -0.16818251 0.00000000)
		(2.63128492 -0.17748737 0.00000000)
		(2.64804469 -0.18632097 0.00000000)
		(2.66480447 -0.19465986 0.00000000)
		(2.68156425 -0.20248189 0.00000000)
		(2.69832402 -0.20976630 0.00000000)
		(2.71508380 -0.21649374 0.00000000)
		(2.73184358 -0.22264635 0.00000000)
		(2.74860335 -0.22820780 0.00000000)
		(2.76536313 -0.23316333 0.00000000)
		(2.78212291 -0.23749976 0.00000000)
		(2.79888268 -0.24120559 0.00000000)
		(2.81564246 -0.24427098 0.00000000)
		(2.83240223 -0.24668779 0.00000000)
		(2.84916201 -0.24844960 0.00000000)
		(2.86592179 -0.24955173 0.00000000)
		(2.88268156 -0.24999127 0.00000000)
		(2.89944134 -0.24976703 0.00000000)
		(2.91620112 -0.24887962 0.00000000)
		(2.93296089 -0.24733139 0.00000000)
		(2.95166480 -0.24491976 0.00000000)
		(2.97036872 -0.24276198 0.00000000)
		(2.98907263 -0.24085806 0.00000000)
		(3.00777654 -0.23920799 0.00000000)
		(3.02648045 -0.23781178 0.00000000)
		(3.04518436 -0.23666943 0.00000000)
		(3.06388827 -0.23578093 0.00000000)
		(3.08259218 -0.23514629 0.00000000)
		(3.10129609 -0.23476551 0.00000000)
		(3.12000000 -0.23463858 0.00000000)
		(3.14000000 -0.23463858 0.00000000)
		(3.16000000 -0.23463858 0.00000000)
		(3.18000000 -0.23463858 0.00000000)
		(3.20000000 -0.23463858 0.00000000)
		(3.22000000 -0.23463858 0.00000000)
		(3.24000000 -0.23463858 0.00000000)
		(3.26000000 -0.23463858 0.00000000)
		(3.28000000 -0.23463858 0.00000000)
		(3.30000000 -0.23463858 0.00000000)
		(3.32000000 -0.23463858 0.00000000)
		(3.34000000 -0.23463858 0.00000000)
		(3.36000000 -0.23463858 0.00000000)
		(3.38000000 -0.23463858 0.00000000)
		(3.40000000 -0.23463858 0.00000000)
		(3.42000000 -0.23463858 0.00000000)
		(3.44000000 -0.23463858 0.00000000)
		(3.46000000 -0.23463858 0.00000000)
		(3.48000000 -0.23463858 0.00000000)
		(3.50000000 -0.23463858 0.00000000)
		(3.52000000 -0.23463858 0.00000000)
		(3.54000000 -0.23463858 0.00000000)
		(3.56000000 -0.23463858 0.00000000)
		(3.58000000 -0.23463858 0.00000000)
		(3.60000000 -0.23463858 0.00000000)
		(3.62000000 -0.23463858 0.00000000)
		(3.64000000 -0.23463858 0.00000000)
		(3.66000000 -0.23463858 0.00000000)
		(3.68000000 -0.23463858 0.00000000)
		(3.70000000 -0.23463858 0.00000000)
		(3.72000000 -0.23463858 0.00000000)
		(3.74000000 -0.23463858 0.00000000)
		(3.76000000 -0.23463858 0.00000000)
		(3.78000000 -0.23463858 0.00000000)
		(3.80000000 -0.23463858 0.00000000)
		(3.82000000 -0.23463858 0.00000000)
		(3.84000000 -0.23463858 0.00000000)
		(3.86000000 -0.23463858 0.00000000)
		(3.88000000 -0.23463858 0.00000000)
		(3.90000000 -0.23463858 0.00000000)
		(3.92000000 -0.23463858 0.00000000)
		(3.94000000 -0.23463858 0.00000000)
		(3.96000000 -0.23463858 0.00000000)
		(3.98000000 -0.23463858 0.00000000)
		(4.00000000 -0.23463858 0.00000000)
	)
	polyLine 4 5
	(
		(-1.00000000 0.21279535 0.10000000)
		(-0.98000000 0.21279535 0.10000000)
		(-0.96000000 0.21279535 0.10000000)
		(-0.94000000 0.21279535 0.10000000)
		(-0.92000000 0.21279535 0.10000000)
		(-0.90000000 0.21279535 0.10000000)
		(-0.88000000 0.21279535 0.10000000)
		(-0.86000000 0.21279535 0.10000000)
		(-0.84000000 0.21279535 0.10000000)
		(-0.82000000 0.21279535 0.10000000)
		(-0.80000000 0.21279535 0.10000000)
		(-0.78000000 0.21279535 0.10000000)
		(-0.76000000 0.21279535 0.10000000)
		(-0.74000000 0.21279535 0.10000000)
		(-0.72000000 0.21279535 0.10000000)
		(-0.70000000 0.21279535 0.10000000)
		(-0.68000000 0.21279535 0.10000000)
		(-0.66000000 0.21279535 0.10000000)
		(-0.64000000 0.21279535 0.10000000)
		(-0.62000000 0.21279535 0.10000000)
		(-0.60000000 0.21279535 0.10000000)
		(-0.58000000 0.21279535 0.10000000)
		(-0.56000000 0.21279535 0.10000000)
		(-0.54000000 0.21279535 0.10000000)
		(-0.52000000 0.21279535 0.10000000)
		(-0.50000000 0.21279535 0.10000000)
		(-0.48000000 0.21279535 0.10000000)
		(-0.46000000 0.21279535 0.10000000)
		(-0.44000000 0.21279535 0.10000000)
		(-0.42000000 0.21279535 0.10000000)
		(-0.40000000 0.21279535 0.10000000)
		(-0.38000000 0.21279535 0.10000000)
		(-0.36000000 0.21279535 0.10000000)
		(-0.34000000 0.21279535 0.10000000)
		(-0.32000000 0.21279535 0.10000000)
		(-0.30000000 0.21279535 0.10000000)
		(-0.28000000 0.21279535 0.10000000)
		(-0.26000000 0.21279535 0.10000000)
		(-0.24000000 0.21279535 0.10000000)
		(-0.22000000 0.21279535 0.10000000)
		(-0.20000000 0.21279535 0.10000000)
		(-0.18000000 0.21279535 0.10000000)
		(-0.16000000 0.21279535 0.10000000)
		(-0.14000000 0.21279535 0.10000000)
		(-0.12000000 0.21279535 0.10000000)
		(-0.10000000 0.21279535 0.10000000)
		(-0.08162011 0.21239072 0.10000000)
		(-0.06324022 0.21117682 0.10000000)
		(-0.04486034 0.20915366 0.10000000)
		(-0.02648045 0.20632124 0.10000000)
		(-0.00810056 0.20267955 0.10000000)
		(0.01027933 0.19822860 0.10000000)
		(0.02865922 0.19296838 0.10000000)
		(0.04703911 0.18689890 0.10000000)
		(0.06541899 0.18002016 0.10000000)
		(0.08379888 0.17233215 0.10000000)
		(0.10055866 0.16277405 0.10000000)
		(0.11731844 0.15278376 0.10000000)
		(0.13407821 0.14238780 0.10000000)
		(0.15083799 0.13161378 0.10000000)
		(0.16759777 0.12049030 0.10000000)
		(0.18435754 0.10904690 0.10000000)
		(0.20111732 0.09731396 0.10000000)
		(0.21787709 0.08532264 0.10000000)
		(0.23463687 0.07310477 0.10000000)
		(0.25139665 0.06069280 0.10000000)
		(0.26815642 0.04811967 0.10000000)
		(0.28491620 0.03541878 0.10000000)
		(0.30167598 0.02262385 0.10000000)
		(0.31843575 0.00976885 0.10000000)
		(0.33519553 -0.00311209 0.10000000)
		(0.35195531 -0.01598477 0.10000000)
		(0.36871508 -0.02881501 0.10000000)
		(0.38547486 -0.04156874 0.10000000)
		(0.40223464 -0.05421209 0.10000000)
		(0.41899441 -0.06671150 0.10000000)
		(0.43575419 -0.07903379 0.10000000)
		(0.45251397 -0.09114622 0.10000000)
		(0.46927374 -0.10301665 0.10000000)
		(0.48603352 -0.11461354 0.10000000)
		(0.50279330 -0.12590613 0.10000000)
		(0.51955307 -0.13686440 0.10000000)
		(0.53631285 -0.14745928 0.10000000)
		(0.55307263 -0.15766264 0.10000000)
		(0.56983240 -0.16744737 0.10000000)
		(0.58659218 -0.17678749 0.10000000)
		(0.60335196 -0.18565822 0.10000000)
		(0.62011173 -0.19403600 0.10000000)
		(0.63687151 -0.20189857 0.10000000)
		(0.65363128 -0.20922507 0.10000000)
		(0.67039106 -0.21599605 0.10000000)
		(0.68715084 -0.22219351 0.10000000)
		(0.70391061 -0.22780102 0.10000000)
		(0.72067039 -0.23280367 0.10000000)
		(0.73743017 -0.23718820 0.10000000)
		(0.75418994 -0.24094294 0.10000000)
		(0.77094972 -0.24405795 0.10000000)
		(0.78770950 -0.24652493 0.10000000)
		(0.80446927 -0.24833736 0.10000000)
		(0.82122905 -0.24949040 0.10000000)
		(0.83798883 -0.24998101 0.10000000)
		(0.85474860 -0.24980787 0.10000000)
		(0.87150838 -0.24897145 0.10000000)
		(0.88826816 -0.24747397 0.10000000)
		(0.90502793 -0.24531941 0.10000000)
		(0.92178771 -0.24251348 0.10000000)
		(0.93854749 -0.23906363 0.10000000)
		(0.95530726 -0.23497903 0.10000000)
		(0.97206704 -0.23027053 0.10000000)
		(0.98882682 -0.22495061 0.10000000)
		(1.00558659 -0.21903341 0.10000000)
		(1.02234637 -0.21253465 0.10000000)
		(1.03910615 -0.20547156 0.10000000)
		(1.05586592 -0.19786292 0.10000000)
		(1.07262570 -0.18972891 0.10000000)
		(1.08938547 -0.18109115 0.10000000)
		(1.10614525 -0.17197255 0.10000000)
		(1.12290503 -0.16239734 0.10000000)
		(1.13966480 -0.15239094 0.10000000)
		(1.15642458 -0.14197991 0.10000000)
		(1.17318436 -0.13119190 0.10000000)
		(1.18994413 -0.12005556 0.10000000)
		(1.20670391 -0.10860045 0.10000000)
		(1.22346369 -0.09685698 0.10000000)
		(1.24022346 -0.08485635 0.10000000)
		(1.25698324 -0.07263040 0.10000000)
		(1.27374302 -0.06021161 0.10000000)
		(1.29050279 -0.04763295 0.10000000)
		(1.30726257 -0.03492781 0.10000000)
		(1.32402235 -0.02212994 0.10000000)
		(1.34078212 -0.00927330 0.10000000)
		(1.35754190 0.00360795 0.10000000)
		(1.37430168 0.01647963 0.10000000)
		(1.39106145 0.02930755 0.10000000)
		(1.40782123 0.04205765 0.10000000)
		(1.42458101 0.05469609 0.10000000)
		(1.44134078 0.06718929 0.10000000)
		(1.45810056 0.07950410 0.10000000)
		(1.47486034 0.09160781 0.10000000)
		(1.49162011 0.10346829 0.10000000)
		(1.50837989 0.11505404 0.10000000)
		(1.52513966 0.12633430 0.10000000)
		(1.54189944 0.13727912 0.10000000)
		(1.55865922 0.14785945 0.10000000)
		(1.57541899 0.15804718 0.10000000)
		(1.59217877 0.16781527 0.10000000)
		(1.60893855 0.17713778 0.10000000)
		(1.62569832 0.18598996 0.10000000)
		(1.64245810 0.19434831 0.10000000)
		(1.65921788 0.20219063 0.10000000)
		(1.67597765 0.20949610 0.10000000)
		(1.69273743 0.21624532 0.10000000)
		(1.70949721 0.22242037 0.10000000)
		(1.72625698 0.22800486 0.10000000)
		(1.74301676 0.23298396 0.10000000)
		(1.75977654 0.23734444 0.10000000)
		(1.77653631 0.24107474 0.10000000)
		(1.79329609 0.24416494 0.10000000)
		(1.81005587 0.24660685 0.10000000)
		(1.82681564 0.24839397 0.10000000)
		(1.84357542 0.24952156 0.10000000)
		(1.86033520 0.24998663 0.10000000)
		(1.87709497 0.24978794 0.10000000)
		(1.89385475 0.24892603 0.10000000)
		(1.91061453 0.24740317 0.10000000)
		(1.92737430 0.24522341 0.10000000)
		(1.94413408 0.24239255 0.10000000)
		(1.96089385 0.23891809 0.10000000)
		(1.97765363 0.23480927 0.10000000)
		(1.99441341 0.23007699 0.10000000)
		(2.01117318 0.22473381 0.10000000)
		(2.02793296 0.21879393 0.10000000)
		(2.04469274 0.21227311 0.10000000)
		(2.06145251 0.20518867 0.10000000)
		(2.07821229 0.19755942 0.10000000)
		(2.09497207 0.18940562 0.10000000)
		(2.11173184 0.18074891 0.10000000)
		(2.12849162 0.17161228 0.10000000)
		(2.14525140 0.16202000 0.10000000)
		(2.16201117 0.15199752 0.10000000)
		(2.17877095 0.14157146 0.10000000)
		(2.19553073 0.13076951 0.10000000)
		(2.21229050 0.11962035 0.10000000)
		(2.22905028 0.10815357 0.10000000)
		(2.24581006 0.09639962 0.10000000)
		(2.26256983 0.08438972 0.10000000)
		(2.27932961 0.07215575 0.10000000)
		(2.29608939 0.05973019 0.10000000)
		(2.31284916 0.04714604 0.10000000)
		(2.32960894 0.03443671 0.10000000)
		(2.34636872 0.02163594 0.10000000)
		(2.36312849 0.00877773 0.10000000)
		(2.37988827 -0.00410379 0.10000000)
		(2.39664804 -0.01697442 0.10000000)
		(2.41340782 -0.02979997 0.10000000)
		(2.43016760 -0.04254640 0.10000000)
		(2.44692737 -0.05517987 0.10000000)
		(2.46368715 -0.06766682 0.10000000)
		(2.48044693 -0.07997410 0.10000000)
		(2.49720670 -0.09206904 0.10000000)
		(2.51396648 -0.10391952 0.10000000)
		(2.53072626 -0.11549407 0.10000000)
		(2.54748603 -0.12676197 0.10000000)
		(2.56424581 -0.13769330 0.10000000)
		(2.58100559 -0.14825903 0.10000000)
		(2.59776536 -0.15843110 0.10000000)
		(2.61452514 -0.16818251 0.10000000)
		(2.63128492 -0.17748737 0.10000000)
		(2.64804469 -0.18632097 0.10000000)
		(2.66480447 -0.19465986 0.10000000)
		(2.68156425 -0.20248189 0.10000000)
		(2.69832402 -0.20976630 0.10000000)
		(2.71508380 -0.21649374 0.10000000)
		(2.73184358 -0.22264635 0.10000000)
		(2.74860335 -0.22820780 0.10000000)
		(2.76536313 -0.23316333 0.10000000)
		(2.78212291 -0.23749976 0.10000000)
		(2.79888268 -0.24120559 0.10000000)
		(2.81564246 -0.24427098 0.10000000)
		(2.83240223 -0.24668779 0.10000000)
		(2.84916201 -0.24844960 0.10000000)
		(2.86592179 -0.24955173 0.10000000)
		(2.88268156 -0.24999127 0.10000000)
		(2.89944134 -0.24976703 0.10000000)
		(2.91620112 -0.24887962 0.10000000)
		(2.93296089 -0.24733139 0.10000000)
		(2.95166480 -0.24491976 0.10000000)
		(2.97036872 -0.24276198 0.10000000)
		(2.98907263 -0.24085806 0.10000000)
		(3.00777654 -0.23920799 0.10000000)
		(3.02648045 -0.23781178 0.10000000)
		(3.04518436 -0.23666943 0.10000000)
		(3.06388827 -0.23578093 0.10000000)
		(3.08259218 -0.23514629 0.10000000)
		(3.10129609 -0.23476551 0.10000000)
		(3.12000000 -0.23463858 0.10000000)
		(3.14000000 -0.23463858 0.10000000)
		(3.16000000 -0.23463858 0.10000000)
		(3.18000000 -0.23463858 0.10000000)
		(3.20000000 -0.23463858 0.10000000)
		(3.22000000 -0.23463858 0.10000000)
		(3.24000000 -0.23463858 0.10000000)
		(3.26000000 -0.23463858 0.10000000)
		(3.28000000 -0.23463858 0.10000000)
		(3.30000000 -0.23463858 0.10000000)
		(3.32000000 -0.23463858 0.10000000)
		(3.34000000 -0.23463858 0.10000000)
		(3.36000000 -0.23463858 0.10000000)
		(3.38000000 -0.23463858 0.10000000)
		(3.40000000 -0.23463858 0.10000000)
		(3.42000000 -0.23463858 0.10000000)
		(3.44000000 -0.23463858 0.10000000)
		(3.46000000 -0.23463858 0.10000000)
		(3.48000000 -0.23463858 0.10000000)
		(3.50000000 -0.23463858 0.10000000)
		(3.52000000 -0.23463858 0.10000000)
		(3.54000000 -0.23463858 0.10000000)
		(3.56000000 -0.23463858 0.10000000)
		(3.58000000 -0.23463858 0.10000000)
		(3.60000000 -0.23463858 0.10000000)
		(3.62000000 -0.23463858 0.10000000)
		(3.64000000 -0.23463858 0.10000000)
		(3.66000000 -0.23463858 0.10000000)
		(3.68000000 -0.23463858 0.10000000)
		(3.70000000 -0.23463858 0.10000000)
		(3.72000000 -0.23463858 0.10000000)
		(3.74000000 -0.23463858 0.10000000)
		(3.76000000 -0.23463858 0.10000000)
		(3.78000000 -0.23463858 0.10000000)
		(3.80000000 -0.23463858 0.10000000)
		(3.82000000 -0.23463858 0.10000000)
		(3.84000000 -0.23463858 0.10000000)
		(3.86000000 -0.23463858 0.10000000)
		(3.88000000 -0.23463858 0.10000000)
		(3.90000000 -0.23463858 0.10000000)
		(3.92000000 -0.23463858 0.10000000)
		(3.94000000 -0.23463858 0.10000000)
		(3.96000000 -0.23463858 0.10000000)
		(3.98000000 -0.23463858 0.10000000)
		(4.00000000 -0.23463858 0.10000000)
	)
	polyLine 3 2
	(
		(-1.00000000 0.71279535 0.00000000)
		(-0.98000000 0.71294697 0.00000000)
		(-0.96000000 0.71309858 0.00000000)
		(-0.94000000 0.71325020 0.00000000)
		(-0.92000000 0.71340181 0.00000000)
		(-0.90000000 0.71355343 0.00000000)
		(-0.88000000 0.71370504 0.00000000)
		(-0.86000000 0.71385666 0.00000000)
		(-0.84000000 0.71400827 0.00000000)
		(-0.82000000 0.71415989 0.00000000)
		(-0.80000000 0.71431150 0.00000000)
		(-0.78000000 0.71446312 0.00000000)
		(-0.76000000 0.71461473 0.00000000)
		(-0.74000000 0.71476635 0.00000000)
		(-0.72000000 0.71491796 0.00000000)
		(-0.70000000 0.71506958 0.00000000)
		(-0.68000000 0.71522119 0.00000000)
		(-0.66000000 0.71537281 0.00000000)
		(-0.64000000 0.71552442 0.00000000)
		(-0.62000000 0.71567604 0.00000000)
		(-0.60000000 0.71582765 0.00000000)
		(-0.58000000 0.71597927 0.00000000)
		(-0.56000000 0.71613088 0.00000000)
		(-0.54000000 0.71628250 0.00000000)
		(-0.52000000 0.71643411 0.00000000)
		(-0.50000000 0.71658573 0.00000000)
		(-0.48000000 0.71673734 0.00000000)
		(-0.46000000 0.71688896 0.00000000)
		(-0.44000000 0.71704057 0.00000000)
		(-0.42000000 0.71719219 0.00000000)
		(-0.40000000 0.71734380 0.00000000)
		(-0.38000000 0.71749542 0.00000000)
		(-0.36000000 0.71764703 0.00000000)
		(-0.34000000 0.71779865 0.00000000)
		(-0.32000000 0.71795027 0.00000000)
		(-0.30000000 0.71810188 0.00000000)
		(-0.28000000 0.71825350 0.00000000)
		(-0.26000000 0.71840511 0.00000000)
		(-0.24000000 0.71855673 0.00000000)
		(-0.22000000 0.71870834 0.00000000)
		(-0.20000000 0.71885996 0.00000000)
		(-0.18000000 0.71901157 0.00000000)
		(-0.16000000 0.71916319 0.00000000)
		(-0.14000000 0.71931480 0.00000000)
		(-0.12000000 0.71946642 0.00000000)
		(-0.10000000 0.71961803 0.00000000)
		(-0.08162011 0.72000436 0.00000000)
		(-0.06324022 0.71938774 0.00000000)
		(-0.04486034 0.71776817 0.00000000)
		(-0.02648045 0.71514565 0.00000000)
		(-0.00810056 0.71152018 0.00000000)
		(0.01027933 0.70689177 0.00000000)
		(0.02865922 0.70126041 0.00000000)
		(0.04703911 0.69462610 0.00000000)
		(0.06541899 0.68698884 0.00000000)
		(0.08379888 0.67834863 0.00000000)
		(0.10055866 0.66845684 0.00000000)
		(0.11731844 0.65811777 0.00000000)
		(0.13407821 0.64735887 0.00000000)
		(0.15083799 0.63620870 0.00000000)
		(0.16759777 0.62469688 0.00000000)
		(0.18435754 0.61285396 0.00000000)
		(0.20111732 0.60071140 0.00000000)
		(0.21787709 0.58830144 0.00000000)
		(0.23463687 0.57565702 0.00000000)
		(0.25139665 0.56281171 0.00000000)
		(0.26815642 0.54979963 0.00000000)
		(0.28491620 0.53665533 0.00000000)
		(0.30167598 0.52341370 0.00000000)
		(0.31843575 0.51010990 0.00000000)
		(0.33519553 0.49677926 0.00000000)
		(0.35195531 0.48345716 0.00000000)
		(0.36871508 0.47017900 0.00000000)
		(0.38547486 0.45698001 0.00000000)
		(0.40223464 0.44389525 0.00000000)
		(0.41899441 0.43095946 0.00000000)
		(0.43575419 0.41820698 0.00000000)
		(0.45251397 0.40567167 0.00000000)
		(0.46927374 0.39338682 0.00000000)
		(0.48603352 0.38138505 0.00000000)
		(0.50279330 0.36969822 0.00000000)
		(0.51955307 0.35835737 0.00000000)
		(0.53631285 0.34739260 0.00000000)
		(0.55307263 0.33683302 0.00000000)
		(0.56983240 0.32670669 0.00000000)
		(0.58659218 0.31704048 0.00000000)
		(0.60335196 0.30786005 0.00000000)
		(0.62011173 0.29918979 0.00000000)
		(0.63687151 0.29105272 0.00000000)
		(0.65363128 0.28347043 0.00000000)
		(0.67039106 0.27646307 0.00000000)
		(0.68715084 0.27004923 0.00000000)
		(0.70391061 0.26424596 0.00000000)
		(0.72067039 0.25906865 0.00000000)
		(0.73743017 0.25453106 0.00000000)
		(0.75418994 0.25064522 0.00000000)
		(0.77094972 0.24742147 0.00000000)
		(0.78770950 0.24486835 0.00000000)
		(0.80446927 0.24299265 0.00000000)
		(0.82122905 0.24179935 0.00000000)
		(0.83798883 0.24129162 0.00000000)
		(0.85474860 0.24147080 0.00000000)
		(0.87150838 0.24233642 0.00000000)
		(0.88826816 0.24388618 0.00000000)
		(0.90502793 0.24611597 0.00000000)
		(0.92178771 0.24901986 0.00000000)
		(0.93854749 0.25259014 0.00000000)
		(0.95530726 0.25681734 0.00000000)
		(0.97206704 0.26169024 0.00000000)
		(0.98882682 0.26719588 0.00000000)
		(1.00558659 0.27331966 0.00000000)
		(1.02234637 0.28004531 0.00000000)
		(1.03910615 0.28735498 0.00000000)
		(1.05586592 0.29522926 0.00000000)
		(1.07262570 0.30364724 0.00000000)
		(1.08938547 0.31258657 0.00000000)
		(1.10614525 0.32202352 0.00000000)
		(1.12290503 0.33193302 0.00000000)
		(1.13966480 0.34228877 0.00000000)
		(1.15642458 0.35306326 0.00000000)
		(1.17318436 0.36422790 0.00000000)
		(1.18994413 0.37575304 0.00000000)
		(1.20670391 0.38760808 0.00000000)
		(1.22346369 0.39976153 0.00000000)
		(1.24022346 0.41218114 0.00000000)
		(1.25698324 0.42483391 0.00000000)
		(1.27374302 0.43768627 0.00000000)
		(1.29050279 0.45070408 0.00000000)
		(1.30726257 0.46385278 0.00000000)
		(1.32402235 0.47709746 0.00000000)
		(1.34078212 0.49040294 0.00000000)
		(1.35754190 0.50373391 0.00000000)
		(1.37430168 0.51705497 0.00000000)
		(1.39106145 0.53033074 0.00000000)
		(1.40782123 0.54352597 0.00000000)
		(1.42458101 0.55660564 0.00000000)
		(1.44134078 0.56953501 0.00000000)
		(1.45810056 0.58227976 0.00000000)
		(1.47486034 0.59480603 0.00000000)
		(1.49162011 0.60708059 0.00000000)
		(1.50837989 0.61907082 0.00000000)
		(1.52513966 0.63074490 0.00000000)
		(1.54189944 0.64207183 0.00000000)
		(1.55865922 0.65302154 0.00000000)
		(1.57541899 0.66356494 0.00000000)
		(1.59217877 0.67367406 0.00000000)
		(1.60893855 0.68332204 0.00000000)
		(1.62569832 0.69248327 0.00000000)
		(1.64245810 0.70113343 0.00000000)
		(1.65921788 0.70924954 0.00000000)
		(1.67597765 0.71681005 0.00000000)
		(1.69273743 0.72379491 0.00000000)
		(1.70949721 0.73018554 0.00000000)
		(1.72625698 0.73596500 0.00000000)
		(1.74301676 0.74111793 0.00000000)
		(1.75977654 0.74563065 0.00000000)
		(1.77653631 0.74949118 0.00000000)
		(1.79329609 0.75268926 0.00000000)
		(1.81005587 0.75521642 0.00000000)
		(1.82681564 0.75706593 0.00000000)
		(1.84357542 0.75823289 0.00000000)
		(1.86033520 0.75871420 0.00000000)
		(1.87709497 0.75850857 0.00000000)
		(1.89385475 0.75761657 0.00000000)
		(1.91061453 0.75604054 0.00000000)
		(1.92737430 0.75378469 0.00000000)
		(1.94413408 0.75085499 0.00000000)
		(1.96089385 0.74725924 0.00000000)
		(1.97765363 0.74300696 0.00000000)
		(1.99441341 0.73810947 0.00000000)
		(2.01117318 0.73257975 0.00000000)
		(2.02793296 0.72643249 0.00000000)
		(2.04469274 0.71968402 0.00000000)
		(2.06145251 0.71235224 0.00000000)
		(2.07821229 0.70445664 0.00000000)
		(2.09497207 0.69601817 0.00000000)
		(2.11173184 0.68705924 0.00000000)
		(2.12849162 0.67760363 0.00000000)
		(2.14525140 0.66767646 0.00000000)
		(2.16201117 0.65730408 0.00000000)
		(2.17877095 0.64651403 0.00000000)
		(2.19553073 0.63533496 0.00000000)
		(2.21229050 0.62379655 0.00000000)
		(2.22905028 0.61192944 0.00000000)
		(2.24581006 0.59976514 0.00000000)
		(2.26256983 0.58733594 0.00000000)
		(2.27932961 0.57467486 0.00000000)
		(2.29608939 0.56181550 0.00000000)
		(2.31284916 0.54879201 0.00000000)
		(2.32960894 0.53563897 0.00000000)
		(2.34636872 0.52239130 0.00000000)
		(2.36312849 0.50908417 0.00000000)
		(2.37988827 0.49575293 0.00000000)
		(2.39664804 0.48243297 0.00000000)
		(2.41340782 0.46915965 0.00000000)
		(2.43016760 0.45596821 0.00000000)
		(2.44692737 0.44289369 0.00000000)
		(2.46368715 0.42997079 0.00000000)
		(2.48044693 0.41723383 0.00000000)
		(2.49720670 0.40471663 0.00000000)
		(2.51396648 0.39245243 0.00000000)