/*--------------------------------*- C++ -*----------------------------------*\\
/*--------------------------------*- C++ -*----------------------------------*\\
| =========                 |                                                 |
| \\\\      /  F ield         | OpenFOAM: The Open Source CFD Toolbox           |
|  \\\\    /   O peration     | Version:  v2012                                 |
|   \\\\  /    A nd           | Website:  www.openfoam.com                      |
|    \\\\/     M anipulation  |                                                 |
\\*---------------------------------------------------------------------------*/
FoamFile
{
    version     2.0;
    format      ascii;
    class       dictionary;
    object      blockMeshDict;
}
// * * * * * * * * * * * * * * * * * * * * * * * * * * * * * * * * * * * * * //

scale   0.01;

xmin -1;
xmax 5;
ymin 0;
ymax 0.5;
zmin 0;
zmax 0.1;

vertices
(
    (-1.00000000 -0.14968757 0.00000000)
    (4.00000000 -0.23654186 0.00000000)
    (4.00000000 0.26345814 0.00000000)
    (-1.00000000 0.35031243 0.00000000)
    (-1.00000000 -0.14968757 0.10000000)
    (4.00000000 -0.23654186 0.10000000)
    (4.00000000 0.26345814 0.10000000)
    (-1.00000000 0.35031243 0.10000000)
);

blocks
(
    hex (0 1 2 3 4 5 6 7) (200 20 1) simpleGrading (1 1 1)
);

edges
(
	polyLine 0 1
	(
		(-1.00000000 -0.14968757 0.00000000)
		(-0.98000000 -0.14968757 0.00000000)
		(-0.96000000 -0.14968757 0.00000000)
		(-0.94000000 -0.14968757 0.00000000)
		(-0.92000000 -0.14968757 0.00000000)
		(-0.90000000 -0.14968757 0.00000000)
		(-0.88000000 -0.14968757 0.00000000)
		(-0.86000000 -0.14968757 0.00000000)
		(-0.84000000 -0.14968757 0.00000000)
		(-0.82000000 -0.14968757 0.00000000)
		(-0.80000000 -0.14968757 0.00000000)
		(-0.78000000 -0.14968757 0.00000000)
		(-0.76000000 -0.14968757 0.00000000)
		(-0.74000000 -0.14968757 0.00000000)
		(-0.72000000 -0.14968757 0.00000000)
		(-0.70000000 -0.14968757 0.00000000)
		(-0.68000000 -0.14968757 0.00000000)
		(-0.66000000 -0.14968757 0.00000000)
		(-0.64000000 -0.14968757 0.00000000)
		(-0.62000000 -0.14968757 0.00000000)
		(-0.60000000 -0.14968757 0.00000000)
		(-0.58000000 -0.14968757 0.00000000)
		(-0.56000000 -0.14968757 0.00000000)
		(-0.54000000 -0.14968757 0.00000000)
		(-0.52000000 -0.14968757 0.00000000)
		(-0.50000000 -0.14968757 0.00000000)
		(-0.48000000 -0.14968757 0.00000000)
		(-0.46000000 -0.14968757 0.00000000)
		(-0.44000000 -0.14968757 0.00000000)
		(-0.42000000 -0.14968757 0.00000000)
		(-0.40000000 -0.14968757 0.00000000)
		(-0.38000000 -0.14968757 0.00000000)
		(-0.36000000 -0.14968757 0.00000000)
		(-0.34000000 -0.14968757 0.00000000)
		(-0.32000000 -0.14968757 0.00000000)
		(-0.30000000 -0.14968757 0.00000000)
		(-0.28000000 -0.14968757 0.00000000)
		(-0.26000000 -0.14968757 0.00000000)
		(-0.24000000 -0.14968757 0.00000000)
		(-0.22000000 -0.14968757 0.00000000)
		(-0.20000000 -0.14968757 0.00000000)
		(-0.18000000 -0.14968757 0.00000000)
		(-0.16000000 -0.14968757 0.00000000)
		(-0.14000000 -0.14968757 0.00000000)
		(-0.12000000 -0.14968757 0.00000000)
		(-0.10000000 -0.14968757 0.00000000)
		(-0.08162011 -0.15030737 0.00000000)
		(-0.06324022 -0.15216676 0.00000000)
		(-0.04486034 -0.15526575 0.00000000)
		(-0.02648045 -0.15960433 0.00000000)
		(-0.00810056 -0.16518251 0.00000000)
		(0.01027933 -0.17200028 0.00000000)
		(0.02865922 -0.18005765 0.00000000)
		(0.04703911 -0.18935461 0.00000000)
		(0.06541899 -0.19989117 0.00000000)
		(0.08379888 -0.21166732 0.00000000)
		(0.10055866 -0.22087070 0.00000000)
		(0.11731844 -0.22887976 0.00000000)
		(0.13407821 -0.23565120 0.00000000)
		(0.15083799 -0.24114840 0.00000000)
		(0.16759777 -0.24534164 0.00000000)
		(0.18435754 -0.24820825 0.00000000)
		(0.20111732 -0.24973272 0.00000000)
		(0.21787709 -0.24990681 0.00000000)
		(0.23463687 -0.24872958 0.00000000)
		(0.25139665 -0.24620739 0.00000000)
		(0.26815642 -0.24235389 0.00000000)
		(0.28491620 -0.23718991 0.00000000)
		(0.30167598 -0.23074337 0.00000000)
		(0.31843575 -0.22304914 0.00000000)
		(0.33519553 -0.21414881 0.00000000)
		(0.35195531 -0.20409051 0.00000000)
		(0.36871508 -0.19292864 0.00000000)
		(0.38547486 -0.18072354 0.00000000)
		(0.40223464 -0.16754121 0.00000000)
		(0.41899441 -0.15345295 0.00000000)
		(0.43575419 -0.13853491 0.00000000)
		(0.45251397 -0.12286778 0.00000000)
		(0.46927374 -0.10653626 0.00000000)
		(0.48603352 -0.08962867 0.00000000)
		(0.50279330 -0.07223643 0.00000000)
		(0.51955307 -0.05445359 0.00000000)
		(0.53631285 -0.03637630 0.00000000)
		(0.55307263 -0.01810231 0.00000000)
		(0.56983240 0.00026956 0.00000000)
		(0.58659218 0.01863997 0.00000000)
		(0.60335196 0.03690960 0.00000000)
		(0.62011173 0.05497964 0.00000000)
		(0.63687151 0.07275239 0.00000000)
		(0.65363128 0.09013174 0.00000000)
		(0.67039106 0.10702373 0.00000000)
		(0.68715084 0.12333701 0.00000000)
		(0.70391061 0.13898337 0.00000000)
		(0.72067039 0.15387820 0.00000000)
		(0.73743017 0.16794097 0.00000000)
		(0.75418994 0.18109563 0.00000000)
		(0.77094972 0.19327105 0.00000000)
		(0.78770950 0.20440140 0.00000000)
		(0.80446927 0.21442649 0.00000000)
		(0.82122905 0.22329211 0.00000000)
		(0.83798883 0.23095032 0.00000000)
		(0.85474860 0.23735972 0.00000000)
		(0.87150838 0.24248564 0.00000000)
		(0.88826816 0.24630037 0.00000000)
		(0.90502793 0.24878328 0.00000000)
		(0.92178771 0.24992095 0.00000000)
		(0.93854749 0.24970721 0.00000000)
		(0.95530726 0.24814324 0.00000000)
		(0.97206704 0.24523748 0.00000000)
		(0.98882682 0.24100565 0.00000000)
		(1.00558659 0.23547063 0.00000000)
		(1.02234637 0.22866235 0.00000000)
		(1.03910615 0.22061762 0.00000000)
		(1.05586592 0.21137995 0.00000000)
		(1.07262570 0.20099929 0.00000000)
		(1.08938547 0.18953176 0.00000000)
		(1.10614525 0.17703937 0.00000000)
		(1.12290503 0.16358969 0.00000000)
		(1.13966480 0.14925542 0.00000000)
		(1.15642458 0.13411408 0.00000000)
		(1.17318436 0.11824755 0.00000000)
		(1.18994413 0.10174163 0.00000000)
		(1.20670391 0.08468555 0.00000000)
		(1.22346369 0.06717155 0.00000000)
		(1.24022346 0.04929434 0.00000000)
		(1.25698324 0.03115057 0.00000000)
		(1.27374302 0.01283837 0.00000000)
		(1.29050279 -0.00554325 0.00000000)
		(1.30726257 -0.02389490 0.00000000)
		(1.32402235 -0.04211735 0.00000000)
		(1.34078212 -0.06011205 0.00000000)
		(1.35754190 -0.07778171 0.00000000)
		(1.37430168 -0.09503078 0.00000000)
		(1.39106145 -0.11176599 0.00000000)
		(1.40782123 -0.12789685 0.00000000)
		(1.42458101 -0.14333613 0.00000000)
		(1.44134078 -0.15800035 0.00000000)
		(1.45810056 -0.17181021 0.00000000)
		(1.47486034 -0.18469105 0.00000000)
		(1.49162011 -0.19657320 0.00000000)
		(1.50837989 -0.20739243 0.00000000)
		(1.52513966 -0.21709022 0.00000000)
		(1.54189944 -0.22561415 0.00000000)
		(1.55865922 -0.23291811 0.00000000)
		(1.57541899 -0.23896261 0.00000000)
		(1.59217877 -0.24371497 0.00000000)
		(1.60893855 -0.24714949 0.00000000)
		(1.62569832 -0.24924759 0.00000000)
		(1.64245810 -0.24999795 0.00000000)
		(1.65921788 -0.24939649 0.00000000)
		(1.67597765 -0.24744646 0.00000000)
		(1.69273743 -0.24415843 0.00000000)
		(1.70949721 -0.23955015 0.00000000)
		(1.72625698 -0.23364655 0.00000000)
		(1.74301676 -0.22647956 0.00000000)
		(1.75977654 -0.21808793 0.00000000)
		(1.77653631 -0.20851702 0.00000000)
		(1.79329609 -0.19781861 0.00000000)
		(1.81005587 -0.18605053 0.00000000)
		(1.82681564 -0.17327642 0.00000000)
		(1.84357542 -0.15956535 0.00000000)
		(1.86033520 -0.14499147 0.00000000)
		(1.87709497 -0.12963357 0.00000000)
		(1.89385475 -0.11357471 0.00000000)
		(1.91061453 -0.09690171 0.00000000)
		(1.92737430 -0.07970474 0.00000000)
		(1.94413408 -0.06207678 0.00000000)
		(1.96089385 -0.04411315 0.00000000)
		(1.97765363 -0.02591099 0.00000000)
		(1.99441341 -0.00756872 0.00000000)
		(2.01117318 0.01081448 0.00000000)
		(2.02793296 0.02913920 0.00000000)
		(2.04469274 0.04730635 0.00000000)
		(2.06145251 0.06521771 0.00000000)
		(2.07821229 0.08277641 0.00000000)
		(2.09497207 0.09988752 0.00000000)
		(2.11173184 0.11645850 0.00000000)
		(2.12849162 0.13239976 0.00000000)
		(2.14525140 0.14762509 0.00000000)
		(2.16201117 0.16205218 0.00000000)
		(2.17877095 0.17560299 0.00000000)
		(2.19553073 0.18820427 0.00000000)
		(2.21229050 0.19978787 0.00000000)
		(2.22905028 0.21029116 0.00000000)
		(2.24581006 0.21965735 0.00000000)
		(2.26256983 0.22783577 0.00000000)
		(2.27932961 0.23478223 0.00000000)
		(2.29608939 0.24045914 0.00000000)
		(2.31284916 0.24483583 0.00000000)
		(2.32960894 0.24788861 0.00000000)
		(2.34636872 0.24960098 0.00000000)
		(2.36312849 0.24996369 0.00000000)
		(2.37988827 0.24897477 0.00000000)
		(2.39664804 0.24663956 0.00000000)
		(2.41340782 0.24297071 0.00000000)
		(2.43016760 0.23798804 0.00000000)
		(2.44692737 0.23171849 0.00000000)
		(2.46368715 0.22419598 0.00000000)
		(2.48044693 0.21546117 0.00000000)
		(2.49720670 0.20556130 0.00000000)
		(2.51396648 0.19454989 0.00000000)
		(2.53072626 0.18248650 0.00000000)
		(2.54748603 0.16943635 0.00000000)
		(2.56424581 0.15547000 0.00000000)
		(2.58100559 0.14066299 0.00000000)
		(2.59776536 0.12509536 0.00000000)
		(2.61452514 0.10885131 0.00000000)
		(2.63128492 0.09201867 0.00000000)
		(2.64804469 0.07468845 0.00000000)
		(2.66480447 0.05695437 0.00000000)
		(2.68156425 0.03891232 0.00000000)
		(2.69832402 0.02065987 0.00000000)
		(2.71508380 0.00229569 0.00000000)
		(2.73184358 -0.01608089 0.00000000)
		(2.74860335 -0.03437052 0.00000000)
		(2.76536313 -0.05247430 0.00000000)
		(2.78212291 -0.07029434 0.00000000)
		(2.79888268 -0.08773427 0.00000000)
		(2.81564246 -0.10469980 0.00000000)
		(2.83240223 -0.12109919 0.00000000)
		(2.84916201 -0.13684375 0.00000000)
		(2.86592179 -0.15184836 0.00000000)
		(2.88268156 -0.16603188 0.00000000)
		(2.89944134 -0.17931762 0.00000000)
		(2.91620112 -0.19163373 0.00000000)
		(2.93296089 -0.20291363 0.00000000)
		(2.95166480 -0.20930299 0.00000000)
		(2.97036872 -0.21501979 0.00000000)
		(2.98907263 -0.22006403 0.00000000)
		(3.00777654 -0.22443570 0.00000000)
		(3.02648045 -0.22813480 0.00000000)
		(3.04518436 -0.23116134 0.00000000)
		(3.06388827 -0.23351532 0.00000000)
		(3.08259218 -0.23519673 0.00000000)
		(3.10129609 -0.23620558 0.00000000)
		(3.12000000 -0.23654186 0.00000000)
		(3.14000000 -0.23654186 0.00000000)
		(3.16000000 -0.23654186 0.00000000)
		(3.18000000 -0.23654186 0.00000000)
		(3.20000000 -0.23654186 0.00000000)
		(3.22000000 -0.23654186 0.00000000)
		(3.24000000 -0.23654186 0.00000000)
		(3.26000000 -0.23654186 0.00000000)
		(3.28000000 -0.23654186 0.00000000)
		(3.30000000 -0.23654186 0.00000000)
		(3.32000000 -0.23654186 0.00000000)
		(3.34000000 -0.23654186 0.00000000)
		(3.36000000 -0.23654186 0.00000000)
		(3.38000000 -0.23654186 0.00000000)
		(3.40000000 -0.23654186 0.00000000)
		(3.42000000 -0.23654186 0.00000000)
		(3.44000000 -0.23654186 0.00000000)
		(3.46000000 -0.23654186 0.00000000)
		(3.48000000 -0.23654186 0.00000000)
		(3.50000000 -0.23654186 0.00000000)
		(3.52000000 -0.23654186 0.00000000)
		(3.54000000 -0.23654186 0.00000000)
		(3.56000000 -0.23654186 0.00000000)
		(3.58000000 -0.23654186 0.00000000)
		(3.60000000 -0.23654186 0.00000000)
		(3.62000000 -0.23654186 0.00000000)
		(3.64000000 -0.23654186 0.00000000)
		(3.66000000 -0.23654186 0.00000000)
		(3.68000000 -0.23654186 0.00000000)
		(3.70000000 -0.23654186 0.00000000)
		(3.72000000 -0.23654186 0.00000000)
		(3.74000000 -0.23654186 0.00000000)
		(3.76000000 -0.23654186 0.00000000)
		(3.78000000 -0.23654186 0.00000000)
		(3.80000000 -0.23654186 0.00000000)
		(3.82000000 -0.23654186 0.00000000)
		(3.84000000 -0.23654186 0.00000000)
		(3.86000000 -0.23654186 0.00000000)
		(3.88000000 -0.23654186 0.00000000)
		(3.90000000 -0.23654186 0.00000000)
		(3.92000000 -0.23654186 0.00000000)
		(3.94000000 -0.23654186 0.00000000)
		(3.96000000 -0.23654186 0.00000000)
		(3.98000000 -0.23654186 0.00000000)
		(4.00000000 -0.23654186 0.00000000)
	)
	polyLine 4 5
	(
		(-1.00000000 -0.14968757 0.10000000)
		(-0.98000000 -0.14968757 0.10000000)
		(-0.96000000 -0.14968757 0.10000000)
		(-0.94000000 -0.14968757 0.10000000)
		(-0.92000000 -0.14968757 0.10000000)
		(-0.90000000 -0.14968757 0.10000000)
		(-0.88000000 -0.14968757 0.10000000)
		(-0.86000000 -0.14968757 0.10000000)
		(-0.84000000 -0.14968757 0.10000000)
		(-0.82000000 -0.14968757 0.10000000)
		(-0.80000000 -0.14968757 0.10000000)
		(-0.78000000 -0.14968757 0.10000000)
		(-0.76000000 -0.14968757 0.10000000)
		(-0.74000000 -0.14968757 0.10000000)
		(-0.72000000 -0.14968757 0.10000000)
		(-0.70000000 -0.14968757 0.10000000)
		(-0.68000000 -0.14968757 0.10000000)
		(-0.66000000 -0.14968757 0.10000000)
		(-0.64000000 -0.14968757 0.10000000)
		(-0.62000000 -0.14968757 0.10000000)
		(-0.60000000 -0.14968757 0.10000000)
		(-0.58000000 -0.14968757 0.10000000)
		(-0.56000000 -0.14968757 0.10000000)
		(-0.54000000 -0.14968757 0.10000000)
		(-0.52000000 -0.14968757 0.10000000)
		(-0.50000000 -0.14968757 0.10000000)
		(-0.48000000 -0.14968757 0.10000000)
		(-0.46000000 -0.14968757 0.10000000)
		(-0.44000000 -0.14968757 0.10000000)
		(-0.42000000 -0.14968757 0.10000000)
		(-0.40000000 -0.14968757 0.10000000)
		(-0.38000000 -0.14968757 0.10000000)
		(-0.36000000 -0.14968757 0.10000000)
		(-0.34000000 -0.14968757 0.10000000)
		(-0.32000000 -0.14968757 0.10000000)
		(-0.30000000 -0.14968757 0.10000000)
		(-0.28000000 -0.14968757 0.10000000)
		(-0.26000000 -0.14968757 0.10000000)
		(-0.24000000 -0.14968757 0.10000000)
		(-0.22000000 -0.14968757 0.10000000)
		(-0.20000000 -0.14968757 0.10000000)
		(-0.18000000 -0.14968757 0.10000000)
		(-0.16000000 -0.14968757 0.10000000)
		(-0.14000000 -0.14968757 0.10000000)
		(-0.12000000 -0.14968757 0.10000000)
		(-0.10000000 -0.14968757 0.10000000)
		(-0.08162011 -0.15030737 0.10000000)
		(-0.06324022 -0.15216676 0.10000000)
		(-0.04486034 -0.15526575 0.10000000)
		(-0.02648045 -0.15960433 0.10000000)
		(-0.00810056 -0.16518251 0.10000000)
		(0.01027933 -0.17200028 0.10000000)
		(0.02865922 -0.18005765 0.10000000)
		(0.04703911 -0.18935461 0.10000000)
		(0.06541899 -0.19989117 0.10000000)
		(0.08379888 -0.21166732 0.10000000)
		(0.10055866 -0.22087070 0.10000000)
		(0.11731844 -0.22887976 0.10000000)
		(0.13407821 -0.23565120 0.10000000)
		(0.15083799 -0.24114840 0.10000000)
		(0.16759777 -0.24534164 0.10000000)
		(0.18435754 -0.24820825 0.10000000)
		(0.20111732 -0.24973272 0.10000000)
		(0.21787709 -0.24990681 0.10000000)
		(0.23463687 -0.24872958 0.10000000)
		(0.25139665 -0.24620739 0.10000000)
		(0.26815642 -0.24235389 0.10000000)
		(0.28491620 -0.23718991 0.10000000)
		(0.30167598 -0.23074337 0.10000000)
		(0.31843575 -0.22304914 0.10000000)
		(0.33519553 -0.21414881 0.10000000)
		(0.35195531 -0.20409051 0.10000000)
		(0.36871508 -0.19292864 0.10000000)
		(0.38547486 -0.18072354 0.10000000)
		(0.40223464 -0.16754121 0.10000000)
		(0.41899441 -0.15345295 0.10000000)
		(0.43575419 -0.13853491 0.10000000)
		(0.45251397 -0.12286778 0.10000000)
		(0.46927374 -0.10653626 0.10000000)
		(0.48603352 -0.08962867 0.10000000)
		(0.50279330 -0.07223643 0.10000000)
		(0.51955307 -0.05445359 0.10000000)
		(0.53631285 -0.03637630 0.10000000)
		(0.55307263 -0.01810231 0.10000000)
		(0.56983240 0.00026956 0.10000000)
		(0.58659218 0.01863997 0.10000000)
		(0.60335196 0.03690960 0.10000000)
		(0.62011173 0.05497964 0.10000000)
		(0.63687151 0.07275239 0.10000000)
		(0.65363128 0.09013174 0.10000000)
		(0.67039106 0.10702373 0.10000000)
		(0.68715084 0.12333701 0.10000000)
		(0.70391061 0.13898337 0.10000000)
		(0.72067039 0.15387820 0.10000000)
		(0.73743017 0.16794097 0.10000000)
		(0.75418994 0.18109563 0.10000000)
		(0.77094972 0.19327105 0.10000000)
		(0.78770950 0.20440140 0.10000000)
		(0.80446927 0.21442649 0.10000000)
		(0.82122905 0.22329211 0.10000000)
		(0.83798883 0.23095032 0.10000000)
		(0.85474860 0.23735972 0.10000000)
		(0.87150838 0.24248564 0.10000000)
		(0.88826816 0.24630037 0.10000000)
		(0.90502793 0.24878328 0.10000000)
		(0.92178771 0.24992095 0.10000000)
		(0.93854749 0.24970721 0.10000000)
		(0.95530726 0.24814324 0.10000000)
		(0.97206704 0.24523748 0.10000000)
		(0.98882682 0.24100565 0.10000000)
		(1.00558659 0.23547063 0.10000000)
		(1.02234637 0.22866235 0.10000000)
		(1.03910615 0.22061762 0.10000000)
		(1.05586592 0.21137995 0.10000000)
		(1.07262570 0.20099929 0.10000000)
		(1.08938547 0.18953176 0.10000000)
		(1.10614525 0.17703937 0.10000000)
		(1.12290503 0.16358969 0.10000000)
		(1.13966480 0.14925542 0.10000000)
		(1.15642458 0.13411408 0.10000000)
		(1.17318436 0.11824755 0.10000000)
		(1.18994413 0.10174163 0.10000000)
		(1.20670391 0.08468555 0.10000000)
		(1.22346369 0.06717155 0.10000000)
		(1.24022346 0.04929434 0.10000000)
		(1.25698324 0.03115057 0.10000000)
		(1.27374302 0.01283837 0.10000000)
		(1.29050279 -0.00554325 0.10000000)
		(1.30726257 -0.02389490 0.10000000)
		(1.32402235 -0.04211735 0.10000000)
		(1.34078212 -0.06011205 0.10000000)
		(1.35754190 -0.07778171 0.10000000)
		(1.37430168 -0.09503078 0.10000000)
		(1.39106145 -0.11176599 0.10000000)
		(1.40782123 -0.12789685 0.10000000)
		(1.42458101 -0.14333613 0.10000000)
		(1.44134078 -0.15800035 0.10000000)
		(1.45810056 -0.17181021 0.10000000)
		(1.47486034 -0.18469105 0.10000000)
		(1.49162011 -0.19657320 0.10000000)
		(1.50837989 -0.20739243 0.10000000)
		(1.52513966 -0.21709022 0.10000000)
		(1.54189944 -0.22561415 0.10000000)
		(1.55865922 -0.23291811 0.10000000)
		(1.57541899 -0.23896261 0.10000000)
		(1.59217877 -0.24371497 0.10000000)
		(1.60893855 -0.24714949 0.10000000)
		(1.62569832 -0.24924759 0.10000000)
		(1.64245810 -0.24999795 0.10000000)
		(1.65921788 -0.24939649 0.10000000)
		(1.67597765 -0.24744646 0.10000000)
		(1.69273743 -0.24415843 0.10000000)
		(1.70949721 -0.23955015 0.10000000)
		(1.72625698 -0.23364655 0.10000000)
		(1.74301676 -0.22647956 0.10000000)
		(1.75977654 -0.21808793 0.10000000)
		(1.77653631 -0.20851702 0.10000000)
		(1.79329609 -0.19781861 0.10000000)
		(1.81005587 -0.18605053 0.10000000)
		(1.82681564 -0.17327642 0.10000000)
		(1.84357542 -0.15956535 0.10000000)
		(1.86033520 -0.14499147 0.10000000)
		(1.87709497 -0.12963357 0.10000000)
		(1.89385475 -0.11357471 0.10000000)
		(1.91061453 -0.09690171 0.10000000)
		(1.92737430 -0.07970474 0.10000000)
		(1.94413408 -0.06207678 0.10000000)
		(1.96089385 -0.04411315 0.10000000)
		(1.97765363 -0.02591099 0.10000000)
		(1.99441341 -0.00756872 0.10000000)
		(2.01117318 0.01081448 0.10000000)
		(2.02793296 0.02913920 0.10000000)
		(2.04469274 0.04730635 0.10000000)
		(2.06145251 0.06521771 0.10000000)
		(2.07821229 0.08277641 0.10000000)
		(2.09497207 0.09988752 0.10000000)
		(2.11173184 0.11645850 0.10000000)
		(2.12849162 0.13239976 0.10000000)
		(2.14525140 0.14762509 0.10000000)
		(2.16201117 0.16205218 0.10000000)
		(2.17877095 0.17560299 0.10000000)
		(2.19553073 0.18820427 0.10000000)
		(2.21229050 0.19978787 0.10000000)
		(2.22905028 0.21029116 0.10000000)
		(2.24581006 0.21965735 0.10000000)
		(2.26256983 0.22783577 0.10000000)
		(2.27932961 0.23478223 0.10000000)
		(2.29608939 0.24045914 0.10000000)
		(2.31284916 0.24483583 0.10000000)
		(2.32960894 0.24788861 0.10000000)
		(2.34636872 0.24960098 0.10000000)
		(2.36312849 0.24996369 0.10000000)
		(2.37988827 0.24897477 0.10000000)
		(2.39664804 0.24663956 0.10000000)
		(2.41340782 0.24297071 0.10000000)
		(2.43016760 0.23798804 0.10000000)
		(2.44692737 0.23171849 0.10000000)
		(2.46368715 0.22419598 0.10000000)
		(2.48044693 0.21546117 0.10000000)
		(2.49720670 0.20556130 0.10000000)
		(2.51396648 0.19454989 0.10000000)
		(2.53072626 0.18248650 0.10000000)
		(2.54748603 0.16943635 0.10000000)
		(2.56424581 0.15547000 0.10000000)
		(2.58100559 0.14066299 0.10000000)
		(2.59776536 0.12509536 0.10000000)
		(2.61452514 0.10885131 0.10000000)
		(2.63128492 0.09201867 0.10000000)
		(2.64804469 0.07468845 0.10000000)
		(2.66480447 0.05695437 0.10000000)
		(2.68156425 0.03891232 0.10000000)
		(2.69832402 0.02065987 0.10000000)
		(2.71508380 0.00229569 0.10000000)
		(2.73184358 -0.01608089 0.10000000)
		(2.74860335 -0.03437052 0.10000000)
		(2.76536313 -0.05247430 0.10000000)
		(2.78212291 -0.07029434 0.10000000)
		(2.79888268 -0.08773427 0.10000000)
		(2.81564246 -0.10469980 0.10000000)
		(2.83240223 -0.12109919 0.10000000)
		(2.84916201 -0.13684375 0.10000000)
		(2.86592179 -0.15184836 0.10000000)
		(2.88268156 -0.16603188 0.10000000)
		(2.89944134 -0.17931762 0.10000000)
		(2.91620112 -0.19163373 0.10000000)
		(2.93296089 -0.20291363 0.10000000)
		(2.95166480 -0.20930299 0.10000000)
		(2.97036872 -0.21501979 0.10000000)
		(2.98907263 -0.22006403 0.10000000)
		(3.00777654 -0.22443570 0.10000000)
		(3.02648045 -0.22813480 0.10000000)
		(3.04518436 -0.23116134 0.10000000)
		(3.06388827 -0.23351532 0.10000000)
		(3.08259218 -0.23519673 0.10000000)
		(3.10129609 -0.23620558 0.10000000)
		(3.12000000 -0.23654186 0.10000000)
		(3.14000000 -0.23654186 0.10000000)
		(3.16000000 -0.23654186 0.10000000)
		(3.18000000 -0.23654186 0.10000000)
		(3.20000000 -0.23654186 0.10000000)
		(3.22000000 -0.23654186 0.10000000)
		(3.24000000 -0.23654186 0.10000000)
		(3.26000000 -0.23654186 0.10000000)
		(3.28000000 -0.23654186 0.10000000)
		(3.30000000 -0.23654186 0.10000000)
		(3.32000000 -0.23654186 0.10000000)
		(3.34000000 -0.23654186 0.10000000)
		(3.36000000 -0.23654186 0.10000000)
		(3.38000000 -0.23654186 0.10000000)
		(3.40000000 -0.23654186 0.10000000)
		(3.42000000 -0.23654186 0.10000000)
		(3.44000000 -0.23654186 0.10000000)
		(3.46000000 -0.23654186 0.10000000)
		(3.48000000 -0.23654186 0.10000000)
		(3.50000000 -0.23654186 0.10000000)
		(3.52000000 -0.23654186 0.10000000)
		(3.54000000 -0.23654186 0.10000000)
		(3.56000000 -0.23654186 0.10000000)
		(3.58000000 -0.23654186 0.10000000)
		(3.60000000 -0.23654186 0.10000000)
		(3.62000000 -0.23654186 0.10000000)
		(3.64000000 -0.23654186 0.10000000)
		(3.66000000 -0.23654186 0.10000000)
		(3.68000000 -0.23654186 0.10000000)
		(3.70000000 -0.23654186 0.10000000)
		(3.72000000 -0.23654186 0.10000000)
		(3.74000000 -0.23654186 0.10000000)
		(3.76000000 -0.23654186 0.10000000)
		(3.78000000 -0.23654186 0.10000000)
		(3.80000000 -0.23654186 0.10000000)
		(3.82000000 -0.23654186 0.10000000)
		(3.84000000 -0.23654186 0.10000000)
		(3.86000000 -0.23654186 0.10000000)
		(3.88000000 -0.23654186 0.10000000)
		(3.90000000 -0.23654186 0.10000000)
		(3.92000000 -0.23654186 0.10000000)
		(3.94000000 -0.23654186 0.10000000)
		(3.96000000 -0.23654186 0.10000000)
		(3.98000000 -0.23654186 0.10000000)
		(4.00000000 -0.23654186 0.10000000)
	)
	polyLine 3 2
	(
		(-1.00000000 0.35031243 0.00000000)
		(-0.98000000 0.34890985 0.00000000)
		(-0.96000000 0.34750726 0.00000000)
		(-0.94000000 0.34610468 0.00000000)
		(-0.92000000 0.34470209 0.00000000)
		(-0.90000000 0.34329951 0.00000000)
		(-0.88000000 0.34189692 0.00000000)
		(-0.86000000 0.34049434 0.00000000)
		(-0.84000000 0.33909175 0.00000000)
		(-0.82000000 0.33768917 0.00000000)
		(-0.80000000 0.33628658 0.00000000)
		(-0.78000000 0.33488400 0.00000000)
		(-0.76000000 0.33348141 0.00000000)
		(-0.74000000 0.33207883 0.00000000)
		(-0.72000000 0.33067624 0.00000000)
		(-0.70000000 0.32927366 0.00000000)
		(-0.68000000 0.32787108 0.00000000)
		(-0.66000000 0.32646849 0.00000000)
		(-0.64000000 0.32506591 0.00000000)
		(-0.62000000 0.32366332 0.00000000)
		(-0.60000000 0.32226074 0.00000000)
		(-0.58000000 0.32085815 0.00000000)
		(-0.56000000 0.31945557 0.00000000)
		(-0.54000000 0.31805298 0.00000000)
		(-0.52000000 0.31665040 0.00000000)
		(-0.50000000 0.31524781 0.00000000)
		(-0.48000000 0.31384523 0.00000000)
		(-0.46000000 0.31244264 0.00000000)
		(-0.44000000 0.31104006 0.00000000)
		(-0.42000000 0.30963747 0.00000000)
		(-0.40000000 0.30823489 0.00000000)
		(-0.38000000 0.30683230 0.00000000)
		(-0.36000000 0.30542972 0.00000000)
		(-0.34000000 0.30402713 0.00000000)
		(-0.32000000 0.30262455 0.00000000)
		(-0.30000000 0.30122196 0.00000000)
		(-0.28000000 0.29981938 0.00000000)
		(-0.26000000 0.29841680 0.00000000)
		(-0.24000000 0.29701421 0.00000000)
		(-0.22000000 0.29561163 0.00000000)
		(-0.20000000 0.29420904 0.00000000)
		(-0.18000000 0.29280646 0.00000000)
		(-0.16000000 0.29140387 0.00000000)
		(-0.14000000 0.29000129 0.00000000)
		(-0.12000000 0.28859870 0.00000000)
		(-0.10000000 0.28719612 0.00000000)
		(-0.08162011 0.28682141 0.00000000)
		(-0.06324022 0.28439559 0.00000000)
		(-0.04486034 0.27991866 0.00000000)
		(-0.02648045 0.27339061 0.00000000)
		(-0.00810056 0.26481146 0.00000000)
		(0.01027933 0.25418119 0.00000000)
		(0.02865922 0.24149981 0.00000000)
		(0.04703911 0.22676733 0.00000000)
		(0.06541899 0.20998373 0.00000000)
		(0.08379888 0.19114901 0.00000000)
		(0.10055866 0.17772006 0.00000000)
		(0.11731844 0.16603376 0.00000000)
		(0.13407821 0.15615333 0.00000000)
		(0.15083799 0.14813217 0.00000000)
		(0.16759777 0.14201367 0.00000000)
		(0.18435754 0.13783091 0.00000000)
		(0.20111732 0.13560650 0.00000000)
		(0.21787709 0.13535248 0.00000000)
		(0.23463687 0.13707021 0.00000000)
		(0.25139665 0.14075042 0.00000000)
		(0.26815642 0.14637320 0.00000000)
		(0.28491620 0.15390814 0.00000000)
		(0.30167598 0.16331450 0.00000000)
		(0.31843575 0.17454142 0.00000000)
		(0.33519553 0.18752819 0.00000000)
		(0.35195531 0.20220460 0.00000000)
		(0.36871508 0.21849127 0.00000000)
		(0.38547486 0.23630014 0.00000000)
		(0.40223464 0.25553492 0.00000000)
		(0.41899441 0.27609159 0.00000000)
		(0.43575419 0.29785900 0.00000000)
		(0.45251397 0.32071945 0.00000000)
		(0.46927374 0.34454932 0.00000000)
		(0.48603352 0.36921976 0.00000000)
		(0.50279330 0.39459737 0.00000000)
		(0.51955307 0.42054492 0.00000000)
		(0.53631285 0.44692211 0.00000000)
		(0.55307263 0.47358630 0.00000000)
		(0.56983240 0.50039332 0.00000000)
		(0.58659218 0.52719822 0.00000000)
		(0.60335196 0.55385605 0.00000000)
		(0.62011173 0.58022266 0.00000000)
		(0.63687151 0.60615548 0.00000000)
		(0.65363128 0.63151429 0.00000000)
		(0.67039106 0.65616197 0.00000000)
		(0.68715084 0.67996522 0.00000000)
		(0.70391061 0.70279536 0.00000000)
		(0.72067039 0.72452891 0.00000000)
		(0.73743017 0.74504838 0.00000000)
		(0.75418994 0.76424279 0.00000000)
		(0.77094972 0.78200836 0.00000000)
		(0.78770950 0.79824903 0.00000000)
		(0.80446927 0.81287698 0.00000000)
		(0.82122905 0.82581311 0.00000000)
		(0.83798883 0.83698747 0.00000000)
		(0.85474860 0.84633964 0.00000000)
		(0.87150838 0.85381905 0.00000000)
		(0.88826816 0.85938525 0.00000000)
		(0.90502793 0.86300815 0.00000000)
		(0.92178771 0.86466815 0.00000000)
		(0.93854749 0.86435629 0.00000000)
		(0.95530726 0.86207424 0.00000000)
		(0.97206704 0.85783435 0.00000000)
		(0.98882682 0.85165954 0.00000000)
		(1.00558659 0.84358320 0.00000000)
		(1.02234637 0.83364901 0.00000000)
		(1.03910615 0.82191068 0.00000000)
		(1.05586592 0.80843168 0.00000000)
		(1.07262570 0.79328489 0.00000000)
		(1.08938547 0.77655223 0.00000000)
		(1.10614525 0.75832417 0.00000000)
		(1.12290503 0.73869927 0.00000000)
		(1.13966480 0.71778366 0.00000000)
		(1.15642458 0.69569042 0.00000000)
		(1.17318436 0.67253903 0.00000000)
		(1.18994413 0.64845467 0.00000000)
		(1.20670391 0.62356756 0.00000000)
		(1.22346369 0.59801229 0.00000000)
		(1.24022346 0.57192704 0.00000000)
		(1.25698324 0.54545286 0.00000000)
		(1.27374302 0.51873290 0.00000000)
		(1.29050279 0.49191165 0.00000000)
		(1.30726257 0.46513413 0.00000000)
		(1.32402235 0.43854515 0.00000000)
		(1.34078212 0.41228846 0.00000000)
		(1.35754190 0.38650607 0.00000000)
		(1.37430168 0.36133736 0.00000000)
		(1.39106145 0.33691845 0.00000000)
		(1.40782123 0.31338136 0.00000000)
		(1.42458101 0.29085338 0.00000000)
		(1.44134078 0.26945632 0.00000000)
		(1.45810056 0.24930588 0.00000000)
		(1.47486034 0.23051101 0.00000000)
		(1.49162011 0.21317335 0.00000000)
		(1.50837989 0.19738665 0.00000000)
		(1.52513966 0.18323627 0.00000000)
		(1.54189944 0.17079873 0.00000000)
		(1.55865922 0.16014127 0.00000000)
		(1.57541899 0.15132153 0.00000000)
		(1.59217877 0.14438720 0.00000000)
		(1.60893855 0.13937578 0.00000000)
		(1.62569832 0.13631436 0.00000000)
		(1.64245810 0.13521949 0.00000000)
		(1.65921788 0.13609711 0.00000000)
		(1.67597765 0.13894245 0.00000000)
		(1.69273743 0.14374014 0.00000000)
		(1.70949721 0.15046423 0.00000000)
		(1.72625698 0.15907837 0.00000000)
		(1.74301676 0.16953597 0.00000000)
		(1.75977654 0.18178049 0.00000000)
		(1.77653631 0.19574572 0.00000000)
		(1.79329609 0.21135614 0.00000000)
		(1.81005587 0.22852734 0.00000000)
		(1.82681564 0.24716648 0.00000000)
		(1.84357542 0.26717277 0.00000000)
		(1.86033520 0.28843802 0.00000000)
		(1.87709497 0.31084725 0.00000000)
		(1.89385475 0.33427928 0.00000000)
		(1.91061453 0.35860742 0.00000000)
		(1.92737430 0.38370011 0.00000000)
		(1.94413408 0.40942167 0.00000000)
		(1.96089385 0.43563301 0.00000000)
		(1.97765363 0.46219240 0.00000000)
		(1.99441341 0.48895623 0.00000000)
		(2.01117318 0.51577977 0.00000000)
		(2.02793296 0.54251799 0.00000000)
		(2.04469274 0.56902631 0.00000000)
		(2.06145251 0.59516137 0.00000000)
		(2.07821229 0.62078188 0.00000000)
		(2.09497207 0.64574927 0.00000000)
		(2.11173184 0.66992856 0.00000000)
		(2.12849162 0.69318899 0.00000000)
		(2.14525140 0.71540480 0.00000000)
		(2.16201117 0.73645584 0.00000000)
		(2.17877095 0.75622830 0.00000000)
		(2.19553073 0.77461525 0.00000000)
		(2.21229050 0.79151728 0.00000000)
		(2.22905028 0.80684299 0.00000000)
		(2.24581006 0.82050950 0.00000000)
		(2.26256983 0.83244293 0.00000000)
		(2.27932961 0.84257873 0.00000000)
		(2.29608939 0.85086212 0.00000000)
		(2.31284916 0.85724828 0.00000000)
		(2.32960894 0.86170270 0.00000000)
		(2.34636872 0.86420128 0.00000000)
		(2.36312849 0.86473052 0.00000000)
		(2.37988827 0.86328755 0.00000000)
		(2.39664804 0.85988017 0.00000000)
		(2.41340782 0.85452682 0.00000000)
		(2.43016760 0.84725644 0.00000000)
		(2.44692737 0.83810833 0.00000000)
		(2.46368715 0.82713198 0.00000000)