/*--------------------------------*- C++ -*----------------------------------*\\\\
/*--------------------------------*- C++ -*----------------------------------*\\\\
/*--------------------------------*- C++ -*----------------------------------*\\\\
| =========                 |                                                 |
| \\\\\\\\      /  F ield         | OpenFOAM: The Open Source CFD Toolbox           |
|  \\\\\\\\    /   O peration     | Version:  v2012                                 |
|   \\\\\\\\  /    A nd           | Website:  www.openfoam.com                      |
|    \\\\\\\\/     M anipulation  |                                                 |
\\\\*---------------------------------------------------------------------------*/
FoamFile
{
    version     2.0;
    format      ascii;
    class       dictionary;
    object      blockMeshDict;
}
// * * * * * * * * * * * * * * * * * * * * * * * * * * * * * * * * * * * * * //

scale   0.01;

xmin -1;
xmax 5;
ymin 0;
ymax 0.5;
zmin 0;
zmax 0.1;

vertices
(
    (  -1.0  0.0  $zmin  )
    (  4.0  0.10302962131043915  $zmin  )
    (  4.0  0.6030296213104391  $zmin  )
    (  -1.0  0.5  $zmin  )
    (  -1.0  0.0  $zmax )
    (  4.0  0.10302962131043915  $zmax )
    (  4.0  0.6030296213104391  $zmax )
    (  -1.0  0.5  $zmax )
);

blocks
(
    hex (0 1 2 3 4 5 6 7) (200 20 1) simpleGrading (1 1 1)
);

edges
(
	polyLine 0 1 ((	-1.0	0.14250063939345717	0	)
(	-0.98	0.14250063939345717	0	)
(	-0.96	0.14250063939345717	0	)
(	-0.94	0.14250063939345717	0	)
(	-0.92	0.14250063939345717	0	)
(	-0.9	0.14250063939345717	0	)
(	-0.88	0.14250063939345717	0	)
(	-0.86	0.14250063939345717	0	)
(	-0.84	0.14250063939345717	0	)
(	-0.8200000000000001	0.14250063939345717	0	)
(	-0.8	0.14250063939345717	0	)
(	-0.78	0.14250063939345717	0	)
(	-0.76	0.14250063939345717	0	)
(	-0.74	0.14250063939345717	0	)
(	-0.72	0.14250063939345717	0	)
(	-0.7	0.14250063939345717	0	)
(	-0.6799999999999999	0.14250063939345717	0	)
(	-0.6599999999999999	0.14250063939345717	0	)
(	-0.64	0.14250063939345717	0	)
(	-0.62	0.14250063939345717	0	)
(	-0.6	0.14250063939345717	0	)
(	-0.5800000000000001	0.14250063939345717	0	)
(	-0.56	0.14250063939345717	0	)
(	-0.54	0.14250063939345717	0	)
(	-0.52	0.14250063939345717	0	)
(	-0.5	0.14250063939345717	0	)
(	-0.48	0.14250063939345717	0	)
(	-0.45999999999999996	0.14250063939345717	0	)
(	-0.43999999999999995	0.14250063939345717	0	)
(	-0.42000000000000004	0.14250063939345717	0	)
(	-0.4	0.14250063939345717	0	)
(	-0.38	0.14250063939345717	0	)
(	-0.36	0.14250063939345717	0	)
(	-0.33999999999999997	0.14250063939345717	0	)
(	-0.31999999999999995	0.14250063939345717	0	)
(	-0.29999999999999993	0.14250063939345717	0	)
(	-0.28	0.14250063939345717	0	)
(	-0.26	0.14250063939345717	0	)
(	-0.24	0.14250063939345717	0	)
(	-0.21999999999999997	0.14250063939345717	0	)
(	-0.19999999999999996	0.14250063939345717	0	)
(	-0.17999999999999994	0.14250063939345717	0	)
(	-0.16000000000000003	0.14250063939345717	0	)
(	-0.14	0.14250063939345717	0	)
(	-0.12	0.14250063939345717	0	)
(	-0.09999999999999998	0.14250063939345717	0	)
(	-0.07957790192427062	0.14288733766205522	0	)
(	-0.059155803848541265	0.14137977678735122	0	)
(	-0.038733705772811905	0.1379779567693452	0	)
(	-0.018311607697082552	0.1326818776080372	0	)
(	0.002110490378646801	0.12549153930342716	0	)
(	0.022532588454376168	0.11640694185551512	0	)
(	0.04295468653010551	0.10542808526430109	0	)
(	0.06337678460583487	0.092554969529785	0	)
(	0.08379888268156424	0.07778759465196691	0	)
(	0.08379888268156424	0.07778759465196691	0	)
(	0.1005586592178771	0.06387917737885171	0	)
(	0.11731843575418995	0.049755774184811856	0	)
(	0.1340782122905028	0.035464917504779314	0	)
(	0.15083798882681565	0.021054703339833187	0	)
(	0.16759776536312848	0.0065736293896951304	0	)
(	0.18435754189944134	-0.007929568166697066	0	)
(	0.2011173184357542	-0.022406078693218028	0	)
(	0.21787709497206703	-0.03680718136917129	0	)
(	0.2346368715083799	-0.051084409159630105	0	)
(	0.25139664804469275	-0.06518971193166014	0	)
(	0.2681564245810056	-0.07907561816745537	0	)
(	0.2849162011173184	-0.09269539473013998	0	)
(	0.3016759776536313	-0.10600320414454176	0	)
(	0.31843575418994413	-0.11895425886360944	0	)
(	0.33519553072625696	-0.13150497200128783	0	)
(	0.35195530726256985	-0.14361310402455715	0	)
(	0.3687150837988827	-0.155237904910945	0	)
(	0.3854748603351955	-0.16634025129307778	0	)
(	0.4022346368715084	-0.17688277812870967	0	)
(	0.41899441340782123	-0.18683000445309378	0	)
(	0.43575418994413406	-0.1961484527904746	0	)
(	0.4525139664804469	-0.20480676182282007	0	)
(	0.4692737430167598	-0.21277579193660737	0	)
(	0.4860335195530726	-0.22002872329244316	0	)
(	0.5027932960893855	-0.2265411460874633	0	)
(	0.5195530726256983	-0.2322911427067345	0	)
(	0.5363128491620112	-0.23725936148717627	0	)
(	0.553072625698324	-0.24142908184574882	0	)
(	0.5698324022346368	-0.24478627055271956	0	)
(	0.5865921787709497	-0.24731962896061838	0	)
(	0.6033519553072626	-0.24902063102993285	0	)
(	0.6201117318435754	-0.24988355202356752	0	)
(	0.6368715083798883	-0.2499054877734959	0	)
(	0.6536312849162011	-0.24908636445476295	0	)
(	0.6703910614525139	-0.2474289388339435	0	)
(	0.6871508379888268	-0.24493878899122085	0	)
(	0.7039106145251397	-0.24162429554730955	0	)
(	0.7206703910614525	-0.23749661345840478	0	)
(	0.7374301675977654	-0.23256963447408088	0	)
(	0.7541899441340782	-0.226859940384489	0	)
(	0.770949720670391	-0.22038674721419957	0	)
(	0.7877094972067039	-0.21317184055050623	0	)
(	0.8044692737430168	-0.20523950222384466	0	)
(	0.8212290502793296	-0.19661642858708314	0	)
(	0.8379888268156425	-0.18733164066871746	0	)
(	0.8547486033519552	-0.17741638650234998	0	)
(	0.8715083798882681	-0.1669040359611634	0	)
(	0.888268156424581	-0.1558299684513261	0	)
(	0.9050279329608938	-0.14423145384229594	0	)
(	0.9217877094972067	-0.13214752703475402	0	)
(	0.9385474860335196	-0.11961885658831094	0	)
(	0.9553072625698323	-0.10668760785111955	0	)
(	0.9720670391061452	-0.0933973010520327	0	)
(	0.9888268156424581	-0.07979266483289925	0	)
(	1.005586592178771	-0.06591948571393484	0	)
(	1.0223463687150838	-0.05182445399879446	0	)
(	1.0391061452513966	-0.037555006637953595	0	)
(	1.0558659217877095	-0.023159167579243477	0	)
(	1.0726256983240223	-0.008685386142842248	0	)
(	1.089385474860335	0.00581762603532998	0	)
(	1.106145251396648	0.02030105894304024	0	)
(	1.1229050279329609	0.03471616846225815	0	)
(	1.1396648044692737	0.049014440417905536	0	)
(	1.1564245810055866	0.06314775385272942	0	)
(	1.1731843575418994	0.07706854297879695	0	)
(	1.1899441340782122	0.09072995726056501	0	)
(	1.2067039106145252	0.10408601909075998	0	)
(	1.223463687150838	0.11709177852840993	0	)
(	1.2402234636871508	0.1297034645782587	0	)
(	1.2569832402234637	0.1418786325024264	0	)
(	1.2737430167597765	0.15357630666853936	0	)
(	1.2905027932960893	0.16475711845357424	0	)
(	1.3072625698324023	0.175383438739297	0	)
(	1.324022346368715	0.18541950455338352	0	)
(	1.3407821229050279	0.19483153943001155	0	)
(	1.3575418994413408	0.2035878670848464	0	)
(	1.3743016759776536	0.21165901802184803	0	)
(	1.3910614525139664	0.21901782871311412	0	)
(	1.4078212290502794	0.22563953301796658	0	)
(	1.4245810055865922	0.2315018455336107	0	)
(	1.441340782122905	0.2365850365968506	0	)
(	1.458100558659218	0.24087199868443993	0	)
(	1.4748603351955307	0.24434830398859855	0	)
(	1.4916201117318435	0.24700225297392397	0	)
(	1.5083798882681565	0.24882491375227817	0	)
(	1.5251396648044693	0.24981015214313398	0	)
(	1.541899441340782	0.24995465231821246	0	)
(	1.558659217877095	0.24925792796093144	0	)
(	1.5754189944134078	0.24772232390310828	0	)
(	1.5921787709497206	0.245353008233408	0	)
(	1.6089385474860336	0.24215795490409664	0	)
(	1.6256983240223464	0.23814791689463627	0	)
(	1.6424581005586592	0.23333639002244	0	)
(	1.659217877094972	0.2277395675225825	0	)
(	1.675977653631285	0.22137628554932795	0	)
(	1.6927374301675977	0.21426795978289126	0	)
(	1.7094972067039105	0.20643851335478147	0	)
(	1.7262569832402235	0.19791429633429725	0	)
(	1.7430167597765363	0.18872399704714207	0	)
(	1.759776536312849	0.17889854552461712	0	)
(	1.776536312849162	0.1684710094083348	0	)
(	1.7932960893854748	0.1574764826607871	0	)
(	1.8100558659217876	0.1459519674563121	0	)
(	1.8268156424581006	0.13393624964995826	0	)
(	1.8435754189944134	0.1214697682433563	0	)
(	1.8603351955307261	0.1085944792869103	0	)
(	1.8770949720670391	0.09535371467634962	0	)
(	1.893854748603352	0.08179203631886185	0	)
(	1.9106145251396647	0.06795508615960953	0	)
(	1.9273743016759777	0.05388943257337182	0	)
(	1.9441340782122905	0.0396424136382792	0	)
(	1.9608938547486032	0.025261977819103124	0	)
(	1.9776536312849162	0.01079652259628597	0	)
(	1.994413407821229	-0.0037052684161949473	0	)
(	2.011173184357542	-0.01819458931595055	0	)
(	2.0279329608938546	-0.032622676168862295	0	)
(	2.0446927374301676	-0.04694097112452454	0	)
(	2.0614525139664805	-0.061101285838104785	0	)
(	2.078212290502793	-0.07505596364863454	0	)
(	2.094972067039106	-0.0887580399679119	0	)
(	2.111731843575419	-0.10216140034022592	0	)
(	2.1284916201117317	-0.1152209356409543	0	)
(	2.1452513966480447	-0.12789269389171148	0	)
(	2.1620111731843576	-0.14013402818110843	0	)
(	2.17877094972067	-0.1519037401933	0	)
(	2.195530726256983	-0.16316221886127283	0	)
(	2.212290502793296	-0.17387157367822978	0	)
(	2.2290502793296088	-0.18399576221841765	0	)
(	2.2458100558659218	-0.193500711438222	0	)
(	2.2625698324022347	-0.2023544323492864	0	)
(	2.2793296089385473	-0.2105271276777295	0	)
(	2.2960893854748603	-0.21799129214712623	0	)
(	2.3128491620111733	-0.2247218050477519	0	)
(	2.329608938547486	-0.23069601478054674	0	)
(	2.346368715083799	-0.2358938150912682	0	)
(	2.363128491620112	-0.24029771273826162	0	)
(	2.3798882681564244	-0.2438928863661159	0	)
(	2.3966480446927374	-0.24666723638706275	0	)
(	2.4134078212290504	-0.24861142570224315	0	)
(	2.430167597765363	-0.24971891112579378	0	)
(	2.446927374301676	-0.24998596540599577	0	)
(	2.463687150837989	-0.249411689769372	0	)
(	2.4804469273743015	-0.2479980169455172	0	)
(	2.4972067039106145	-0.2457497046624797	0	)
(	2.5139664804469275	-0.24267431963458683	0	)
(	2.53072625698324	-0.23878221209660314	0	)
(	2.547486033519553	-0.2340864809699252	0	)
(	2.564245810055866	-0.22860292977805047	0	)
(	2.5810055865921786	-0.2223500134596819	0	)
(	2.5977653631284916	-0.21534877625847318	0	)
(	2.6145251396648046	-0.20762278089844616	0	)
(	2.631284916201117	-0.19919802928344016	0	)
(	2.64804469273743	-0.1901028749874807	0	)
(	2.664804469273743	-0.1803679278305827	0	)
(	2.6815642458100557	-0.17002595086113817	0	)
(	2.6983240223463687	-0.15911175009159376	0	)
(	2.7150837988826817	-0.14766205735851787	0	)
(	2.7318435754189943	-0.13571540670128834	0	)
(	2.7486033519553073	-0.12331200467545067	0	)
(	2.7653631284916202	-0.11049359503721055	0	)
(	2.782122905027933	-0.0973033182544637	0	)
(	2.798882681564246	-0.0837855663171773	0	)
(	2.815642458100559	-0.0699858333357699	0	)
(	2.8324022346368714	-0.05595056243028871	0	)
(	2.8491620111731844	-0.04172698942568995	0	)
(	2.8659217877094973	-0.027362983879264502	0	)
(	2.88268156424581	-0.012906887975231617	0	)
(	2.899441340782123	0.0015926461713010487	0	)
(	2.916201117318436	0.016086820253444847	0	)
(	2.9329608938547485	0.03052685400365483	0	)
(	2.9537430167597765	0.043133532108860374	0	)
(	2.9745251396648045	0.054151122067777245	0	)
(	2.9953072625698325	0.06357962388040546	0	)
(	3.0160893854748605	0.07141903754674502	0	)
(	3.036871508379888	0.07766936306679578	0	)
(	3.057653631284916	0.08233060044055807	0	)
(	3.078435754189944	0.08540274966803166	0	)
(	3.099217877094972	0.08688581074921661	0	)
(	3.12	0.08677978368411289	0	)
(	3.12	0.08677978368411289	0	)
(	3.14	0.08677978368411289	0	)
(	3.16	0.08677978368411289	0	)
(	3.1799999999999997	0.08677978368411289	0	)
(	3.2	0.08677978368411289	0	)
(	3.2199999999999998	0.08677978368411289	0	)
(	3.24	0.08677978368411289	0	)
(	3.26	0.08677978368411289	0	)
(	3.2800000000000002	0.08677978368411289	0	)
(	3.3	0.08677978368411289	0	)
(	3.32	0.08677978368411289	0	)
(	3.34	0.08677978368411289	0	)
(	3.36	0.08677978368411289	0	)
(	3.38	0.08677978368411289	0	)
(	3.4	0.08677978368411289	0	)
(	3.42	0.08677978368411289	0	)
(	3.44	0.08677978368411289	0	)
(	3.46	0.08677978368411289	0	)
(	3.48	0.08677978368411289	0	)
(	3.5	0.08677978368411289	0	)
(	3.52	0.08677978368411289	0	)
(	3.54	0.08677978368411289	0	)
(	3.56	0.08677978368411289	0	)
(	3.58	0.08677978368411289	0	)
(	3.6	0.08677978368411289	0	)
(	3.62	0.08677978368411289	0	)
(	3.64	0.08677978368411289	0	)
(	3.66	0.08677978368411289	0	)
(	3.68	0.08677978368411289	0	)
(	3.7	0.08677978368411289	0	)
(	3.7199999999999998	0.08677978368411289	0	)
(	3.74	0.08677978368411289	0	)
(	3.76	0.08677978368411289	0	)
(	3.78	0.08677978368411289	0	)
(	3.8	0.08677978368411289	0	)
(	3.82	0.08677978368411289	0	)
(	3.84	0.08677978368411289	0	)
(	3.86	0.08677978368411289	0	)
(	3.88	0.08677978368411289	0	)
(	3.9	0.08677978368411289	0	)
(	3.92	0.08677978368411289	0	)
(	3.94	0.08677978368411289	0	)
(	3.96	0.08677978368411289	0	)
(	3.98	0.08677978368411289	0	)
(	4.0	0.08677978368411289	0	)
)
	polyLine 4 5 ((	-1.0	0.14250063939345717	0.1	)
(	-0.98	0.14250063939345717	0.1	)
(	-0.96	0.14250063939345717	0.1	)
(	-0.94	0.14250063939345717	0.1	)
(	-0.92	0.14250063939345717	0.1	)
(	-0.9	0.14250063939345717	0.1	)
(	-0.88	0.14250063939345717	0.1	)
(	-0.86	0.14250063939345717	0.1	)
(	-0.84	0.14250063939345717	0.1	)
(	-0.8200000000000001	0.14250063939345717	0.1	)
(	-0.8	0.14250063939345717	0.1	)
(	-0.78	0.14250063939345717	0.1	)
(	-0.76	0.14250063939345717	0.1	)
(	-0.74	0.14250063939345717	0.1	)
(	-0.72	0.14250063939345717	0.1	)
(	-0.7	0.14250063939345717	0.1	)
(	-0.6799999999999999	0.14250063939345717	0.1	)
(	-0.6599999999999999	0.14250063939345717	0.1	)
(	-0.64	0.14250063939345717	0.1	)
(	-0.62	0.14250063939345717	0.1	)
(	-0.6	0.14250063939345717	0.1	)
(	-0.5800000000000001	0.14250063939345717	0.1	)
(	-0.56	0.14250063939345717	0.1	)
(	-0.54	0.14250063939345717	0.1	)
(	-0.52	0.14250063939345717	0.1	)
(	-0.5	0.14250063939345717	0.1	)
(	-0.48	0.14250063939345717	0.1	)
(	-0.45999999999999996	0.14250063939345717	0.1	)
(	-0.43999999999999995	0.14250063939345717	0.1	)
(	-0.42000000000000004	0.14250063939345717	0.1	)
(	-0.4	0.14250063939345717	0.1	)
(	-0.38	0.14250063939345717	0.1	)
(	-0.36	0.14250063939345717	0.1	)
(	-0.33999999999999997	0.14250063939345717	0.1	)
(	-0.31999999999999995	0.14250063939345717	0.1	)
(	-0.29999999999999993	0.14250063939345717	0.1	)
(	-0.28	0.14250063939345717	0.1	)
(	-0.26	0.14250063939345717	0.1	)
(	-0.24	0.14250063939345717	0.1	)
(	-0.21999999999999997	0.14250063939345717	0.1	)
(	-0.19999999999999996	0.14250063939345717	0.1	)
(	-0.17999999999999994	0.14250063939345717	0.1	)
(	-0.16000000000000003	0.14250063939345717	0.1	)
(	-0.14	0.14250063939345717	0.1	)
(	-0.12	0.14250063939345717	0.1	)
(	-0.09999999999999998	0.14250063939345717	0.1	)
(	-0.07957790192427062	0.14288733766205522	0.1	)
(	-0.059155803848541265	0.14137977678735122	0.1	)
(	-0.038733705772811905	0.1379779567693452	0.1	)
(	-0.018311607697082552	0.1326818776080372	0.1	)
(	0.002110490378646801	0.12549153930342716	0.1	)
(	0.022532588454376168	0.11640694185551512	0.1	)
(	0.04295468653010551	0.10542808526430109	0.1	)
(	0.06337678460583487	0.092554969529785	0.1	)
(	0.08379888268156424	0.07778759465196691	0.1	)
(	0.08379888268156424	0.07778759465196691	0.1	)
(	0.1005586592178771	0.06387917737885171	0.1	)
(	0.11731843575418995	0.049755774184811856	0.1	)
(	0.1340782122905028	0.035464917504779314	0.1	)
(	0.15083798882681565	0.021054703339833187	0.1	)
(	0.16759776536312848	0.0065736293896951304	0.1	)
(	0.18435754189944134	-0.007929568166697066	0.1	)
(	0.2011173184357542	-0.022406078693218028	0.1	)
(	0.21787709497206703	-0.03680718136917129	0.1	)
(	0.2346368715083799	-0.051084409159630105	0.1	)
(	0.25139664804469275	-0.06518971193166014	0.1	)
(	0.2681564245810056	-0.07907561816745537	0.1	)
(	0.2849162011173184	-0.09269539473013998	0.1	)
(	0.3016759776536313	-0.10600320414454176	0.1	)
(	0.31843575418994413	-0.11895425886360944	0.1	)
(	0.33519553072625696	-0.13150497200128783	0.1	)
(	0.35195530726256985	-0.14361310402455715	0.1	)
(	0.3687150837988827	-0.155237904910945	0.1	)
(	0.3854748603351955	-0.16634025129307778	0.1	)
(	0.4022346368715084	-0.17688277812870967	0.1	)
(	0.41899441340782123	-0.18683000445309378	0.1	)
(	0.43575418994413406	-0.1961484527904746	0.1	)
(	0.4525139664804469	-0.20480676182282007	0.1	)
(	0.4692737430167598	-0.21277579193660737	0.1	)
(	0.4860335195530726	-0.22002872329244316	0.1	)
(	0.5027932960893855	-0.2265411460874633	0.1	)
(	0.5195530726256983	-0.2322911427067345	0.1	)
(	0.5363128491620112	-0.23725936148717627	0.1	)
(	0.553072625698324	-0.24142908184574882	0.1	)
(	0.5698324022346368	-0.24478627055271956	0.1	)
(	0.5865921787709497	-0.24731962896061838	0.1	)
(	0.6033519553072626	-0.24902063102993285	0.1	)
(	0.6201117318435754	-0.24988355202356752	0.1	)
(	0.6368715083798883	-0.2499054877734959	0.1	)
(	0.6536312849162011	-0.24908636445476295	0.1	)
(	0.6703910614525139	-0.2474289388339435	0.1	)
(	0.6871508379888268	-0.24493878899122085	0.1	)
(	0.7039106145251397	-0.24162429554730955	0.1	)
(	0.7206703910614525	-0.23749661345840478	0.1	)
(	0.7374301675977654	-0.23256963447408088	0.1	)
(	0.7541899441340782	-0.226859940384489	0.1	)
(	0.770949720670391	-0.22038674721419957	0.1	)
(	0.7877094972067039	-0.21317184055050623	0.1	)
(	0.8044692737430168	-0.20523950222384466	0.1	)
(	0.8212290502793296	-0.19661642858708314	0.1	)
(	0.8379888268156425	-0.18733164066871746	0.1	)
(	0.8547486033519552	-0.17741638650234998	0.1	)
(	0.8715083798882681	-0.1669040359611634	0.1	)
(	0.888268156424581	-0.1558299684513261	0.1	)
(	0.9050279329608938	-0.14423145384229594	0.1	)
(	0.9217877094972067	-0.13214752703475402	0.1	)
(	0.9385474860335196	-0.11961885658831094	0.1	)
(	0.9553072625698323	-0.10668760785111955	0.1	)
(	0.9720670391061452	-0.0933973010520327	0.1	)
(	0.9888268156424581	-0.07979266483289925	0.1	)
(	1.005586592178771	-0.06591948571393484	0.1	)
(	1.0223463687150838	-0.05182445399879446	0.1	)
(	1.0391061452513966	-0.037555006637953595	0.1	)
(	1.0558659217877095	-0.023159167579243477	0.1	)
(	1.0726256983240223	-0.008685386142842248	0.1	)
(	1.089385474860335	0.00581762603532998	0.1	)
(	1.106145251396648	0.02030105894304024	0.1	)
(	1.1229050279329609	0.03471616846225815	0.1	)
(	1.1396648044692737	0.049014440417905536	0.1	)
(	1.1564245810055866	0.06314775385272942	0.1	)
(	1.1731843575418994	0.07706854297879695	0.1	)
(	1.1899441340782122	0.09072995726056501	0.1	)
(	1.2067039106145252	0.10408601909075998	0.1	)
(	1.223463687150838	0.11709177852840993	0.1	)
(	1.2402234636871508	0.1297034645782587	0.1	)
(	1.2569832402234637	0.1418786325024264	0.1	)
(	1.2737430167597765	0.15357630666853936	0.1	)
(	1.2905027932960893	0.16475711845357424	0.1	)
(	1.3072625698324023	0.175383438739297	0.1	)
(	1.324022346368715	0.18541950455338352	0.1	)
(	1.3407821229050279	0.19483153943001155	0.1	)
(	1.3575418994413408	0.2035878670848464	0.1	)
(	1.3743016759776536	0.21165901802184803	0.1	)
(	1.3910614525139664	0.21901782871311412	0.1	)
(	1.4078212290502794	0.22563953301796658	0.1	)
(	1.4245810055865922	0.2315018455336107	0.1	)
(	1.441340782122905	0.2365850365968506	0.1	)
(	1.458100558659218	0.24087199868443993	0.1	)
(	1.4748603351955307	0.24434830398859855	0.1	)
(	1.4916201117318435	0.24700225297392397	0.1	)
(	1.5083798882681565	0.24882491375227817	0.1	)
(	1.5251396648044693	0.24981015214313398	0.1	)
(	1.541899441340782	0.24995465231821246	0.1	)
(	1.558659217877095	0.24925792796093144	0.1	)
(	1.5754189944134078	0.24772232390310828	0.1	)
(	1.5921787709497206	0.245353008233408	0.1	)
(	1.6089385474860336	0.24215795490409664	0.1	)
(	1.6256983240223464	0.23814791689463627	0.1	)
(	1.6424581005586592	0.23333639002244	0.1	)
(	1.659217877094972	0.2277395675225825	0.1	)
(	1.675977653631285	0.22137628554932795	0.1	)
(	1.6927374301675977	0.21426795978289126	0.1	)
(	1.7094972067039105	0.20643851335478147	0.1	)
(	1.7262569832402235	0.19791429633429725	0.1	)
(	1.7430167597765363	0.18872399704714207	0.1	)
(	1.759776536312849	0.17889854552461712	0.1	)
(	1.776536312849162	0.1684710094083348	0.1	)
(	1.7932960893854748	0.1574764826607871	0.1	)
(	1.8100558659217876	0.1459519674563121	0.1	)
(	1.8268156424581006	0.13393624964995826	0.1	)
(	1.8435754189944134	0.1214697682433563	0.1	)
(	1.8603351955307261	0.1085944792869103	0.1	)
(	1.8770949720670391	0.09535371467634962	0.1	)
(	1.893854748603352	0.08179203631886185	0.1	)
(	1.9106145251396647	0.06795508615960953	0.1	)
(	1.9273743016759777	0.05388943257337182	0.1	)
(	1.9441340782122905	0.0396424136382792	0.1	)
(	1.9608938547486032	0.025261977819103124	0.1	)
(	1.9776536312849162	0.01079652259628597	0.1	)
(	1.994413407821229	-0.0037052684161949473	0.1	)
(	2.011173184357542	-0.01819458931595055	0.1	)
(	2.0279329608938546	-0.032622676168862295	0.1	)
(	2.0446927374301676	-0.04694097112452454	0.1	)
(	2.0614525139664805	-0.061101285838104785	0.1	)
(	2.078212290502793	-0.07505596364863454	0.1	)
(	2.094972067039106	-0.0887580399679119	0.1	)
(	2.111731843575419	-0.10216140034022592	0.1	)
(	2.1284916201117317	-0.1152209356409543	0.1	)
(	2.1452513966480447	-0.12789269389171148	0.1	)
(	2.1620111731843576	-0.14013402818110843	0.1	)
(	2.17877094972067	-0.1519037401933	0.1	)
(	2.195530726256983	-0.16316221886127283	0.1	)
(	2.212290502793296	-0.17387157367822978	0.1	)
(	2.2290502793296088	-0.18399576221841765	0.1	)
(	2.2458100558659218	-0.193500711438222	0.1	)
(	2.2625698324022347	-0.2023544323492864	0.1	)
(	2.2793296089385473	-0.2105271276777295	0.1	)
(	2.2960893854748603	-0.21799129214712623	0.1	)
(	2.3128491620111733	-0.2247218050477519	0.1	)
(	2.329608938547486	-0.23069601478054674	0.1	)
(	2.346368715083799	-0.2358938150912682	0.1	)
(	2.363128491620112	-0.24029771273826162	0.1	)
(	2.3798882681564244	-0.2438928863661159	0.1	)
(	2.3966480446927374	-0.24666723638706275	0.1	)
(	2.4134078212290504	-0.24861142570224315	0.1	)
(	2.430167597765363	-0.24971891112579378	0.1	)
(	2.446927374301676	-0.24998596540599577	0.1	)
(	2.463687150837989	-0.249411689769372	0.1	)
(	2.4804469273743015	-0.2479980169455172	0.1	)
(	2.4972067039106145	-0.2457497046624797	0.1	)
(	2.5139664804469275	-0.24267431963458683	0.1	)
(	2.53072625698324	-0.23878221209660314	0.1	)
(	2.547486033519553	-0.2340864809699252	0.1	)
(	2.564245810055866	-0.22860292977805047	0.1	)
(	2.5810055865921786	-0.2223500134596819	0.1	)
(	2.5977653631284916	-0.21534877625847318	0.1	)
(	2.6145251396648046	-0.20762278089844616	0.1	)
(	2.631284916201117	-0.19919802928344016	0.1	)
(	2.64804469273743	-0.1901028749874807	0.1	)
(	2.664804469273743	-0.1803679278305827	0.1	)
(	2.6815642458100557	-0.17002595086113817	0.1	)
(	2.6983240223463687	-0.15911175009159376	0.1	)
(	2.7150837988826817	-0.14766205735851787	0.1	)
(	2.7318435754189943	-0.13571540670128834	0.1	)
(	2.7486033519553073	-0.12331200467545067	0.1	)
(	2.7653631284916202	-0.11049359503721055	0.1	)
(	2.782122905027933	-0.0973033182544637	0.1	)
(	2.798882681564246	-0.0837855663171773	0.1	)
(	2.815642458100559	-0.0699858333357699	0.1	)
(	2.8324022346368714	-0.05595056243028871	0.1	)
(	2.8491620111731844	-0.04172698942568995	0.1	)
(	2.8659217877094973	-0.027362983879264502	0.1	)
(	2.88268156424581	-0.012906887975231617	0.1	)
(	2.899441340782123	0.0015926461713010487	0.1	)
(	2.916201117318436	0.016086820253444847	0.1	)
(	2.9329608938547485	0.03052685400365483	0.1	)
(	2.9537430167597765	0.043133532108860374	0.1	)
(	2.9745251396648045	0.054151122067777245	0.1	)
(	2.9953072625698325	0.06357962388040546	0.1	)
(	3.0160893854748605	0.07141903754674502	0.1	)
(	3.036871508379888	0.07766936306679578	0.1	)
(	3.057653631284916	0.08233060044055807	0.1	)
(	3.078435754189944	0.08540274966803166	0.1	)
(	3.099217877094972	0.08688581074921661	0.1	)
(	3.12	0.08677978368411289	0.1	)
(	3.12	0.08677978368411289	0.1	)
(	3.14	0.08677978368411289	0.1	)
(	3.16	0.08677978368411289	0.1	)
(	3.1799999999999997	0.08677978368411289	0.1	)
(	3.2	0.08677978368411289	0.1	)
(	3.2199999999999998	0.08677978368411289	0.1	)
(	3.24	0.08677978368411289	0.1	)
(	3.26	0.08677978368411289	0.1	)
(	3.2800000000000002	0.08677978368411289	0.1	)
(	3.3	0.08677978368411289	0.1	)
(	3.32	0.08677978368411289	0.1	)
(	3.34	0.08677978368411289	0.1	)
(	3.36	0.08677978368411289	0.1	)
(	3.38	0.08677978368411289	0.1	)
(	3.4	0.08677978368411289	0.1	)
(	3.42	0.08677978368411289	0.1	)
(	3.44	0.08677978368411289	0.1	)
(	3.46	0.08677978368411289	0.1	)
(	3.48	0.08677978368411289	0.1	)
(	3.5	0.08677978368411289	0.1	)
(	3.52	0.08677978368411289	0.1	)
(	3.54	0.08677978368411289	0.1	)
(	3.56	0.08677978368411289	0.1	)
(	3.58	0.08677978368411289	0.1	)
(	3.6	0.08677978368411289	0.1	)
(	3.62	0.08677978368411289	0.1	)
(	3.64	0.08677978368411289	0.1	)
(	3.66	0.08677978368411289	0.1	)
(	3.68	0.08677978368411289	0.1	)
(	3.7	0.08677978368411289	0.1	)
(	3.7199999999999998	0.08677978368411289	0.1	)
(	3.74	0.08677978368411289	0.1	)
(	3.76	0.08677978368411289	0.1	)
(	3.78	0.08677978368411289	0.1	)
(	3.8	0.08677978368411289	0.1	)
(	3.82	0.08677978368411289	0.1	)
(	3.84	0.08677978368411289	0.1	)
(	3.86	0.08677978368411289	0.1	)
(	3.88	0.08677978368411289	0.1	)
(	3.9	0.08677978368411289	0.1	)
(	3.92	0.08677978368411289	0.1	)
(	3.94	0.08677978368411289	0.1	)
(	3.96	0.08677978368411289	0.1	)
(	3.98	0.08677978368411289	0.1	)
(	4.0	0.08677978368411289	0.1	)
)
	polyLine 3 2 ((	-1.0	0.6425006393934571	0	)
(	-0.98	0.6438533662099878	0	)
(	-0.96	0.6452060930265184	0	)
(	-0.94	0.6465588198430491	0	)
(	-0.92	0.6479115466595796	0	)
(	-0.9	0.6492642734761103	0	)
(	-0.88	0.6506170002926409	0	)
(	-0.86	0.6519697271091716	0	)
(	-0.84	0.6533224539257022	0	)
(	-0.8200000000000001	0.6546751807422329	0	)
(	-0.8	0.6560279075587635	0	)
(	-0.78	0.657380634375294	0	)
(	-0.76	0.6587333611918247	0	)
(	-0.74	0.6600860880083553	0	)
(	-0.72	0.661438814824886	0	)
(	-0.7	0.6627915416414166	0	)
(	-0.6799999999999999	0.6641442684579473	0	)
(	-0.6599999999999999	0.6654969952744779	0	)
(	-0.64	0.6668497220910085	0	)
(	-0.62	0.6682024489075391	0	)
(	-0.6	0.6695551757240698	0	)
(	-0.5800000000000001	0.6709079025406004	0	)
(	-0.56	0.672260629357131	0	)
(	-0.54	0.6736133561736617	0	)
(	-0.52	0.6749660829901923	0	)
(	-0.5	0.6763188098067229	0	)
(	-0.48	0.6776715366232535	0	)
(	-0.45999999999999996	0.6790242634397842	0	)
(	-0.43999999999999995	0.6803769902563148	0	)
(	-0.42000000000000004	0.6817297170728455	0	)
(	-0.4	0.6830824438893761	0	)
(	-0.38	0.6844351707059068	0	)
(	-0.36	0.6857878975224373	0	)
(	-0.33999999999999997	0.6871406243389679	0	)
(	-0.31999999999999995	0.6884933511554986	0	)
(	-0.29999999999999993	0.6898460779720292	0	)
(	-0.28	0.6911988047885599	0	)
(	-0.26	0.6925515316050905	0	)
(	-0.24	0.6939042584216212	0	)
(	-0.21999999999999997	0.6952569852381517	0	)
(	-0.19999999999999996	0.6966097120546824	0	)
(	-0.17999999999999994	0.697962438871213	0	)
(	-0.16000000000000003	0.6993151656877437	0	)
(	-0.14	0.7006678925042743	0	)
(	-0.12	0.702020619320805	0	)
(	-0.09999999999999998	0.7033733461373356	0	)
(	-0.07957790192427062	0.7049847728920167	0	)
(	-0.059155803848541265	0.7037099219399179	0	)
(	-0.038733705772811905	0.6995487932810394	0	)
(	-0.018311607697082552	0.6925013869153809	0	)
(	0.002110490378646801	0.6825677028429427	0	)
(	0.022532588454376168	0.6697477410637246	0	)
(	0.04295468653010551	0.6540415015777267	0	)
(	0.06337678460583487	0.6354489843849489	0	)
(	0.08379888268156424	0.6139701894853914	0	)
(	0.08379888268156424	0.6139701894853914	0	)
(	0.1005586592178771	0.5935923264192945	0	)
(	0.11731843575418995	0.5728994775736	0	)
(	0.1340782122905028	0.5519612849090876	0	)
(	0.15083798882681565	0.530848216093269	0	)
(	0.16759776536312848	0.509631327340848	0	)
(	0.18435754189944134	0.4883820242734175	0	)
(	0.2011173184357542	0.46717182160322684	0	)
(	0.21787709497206703	0.4460721024498018	0	)
(	0.2346368715083799	0.42515387809944205	0	)
(	0.25139664804469275	0.4044875490161268	0	)
(	0.2681564245810056	0.38414266790814744	0	)
(	0.2849162011173184	0.36418770564786873	0	)
(	0.3016759776536313	0.3446898208324203	0	)
(	0.31843575418994413	0.3257146337608595	0	)
(	0.33519553072625696	0.30732600558849027	0	)
(	0.35195530726256985	0.28958582340159644	0	)
(	0.3687150837988827	0.2725537919359202	0	)
(	0.3854748603351955	0.25628723263986	0	)
(	0.4022346368715084	0.24084089075864318	0	)
(	0.41899441340782123	0.2262667510887329	0	)
(	0.43575418994413406	0.2126138630225473	0	)
(	0.4525139664804469	0.1999281754723084	0	)
(	0.4692737430167598	0.18825238222858243	0	)
(	0.4860335195530726	0.1776257782739602	0	)
(	0.5027932960893855	0.1680841275354557	0	)
(	0.5195530726256983	0.15965954252070197	0	)
(	0.5363128491620112	0.15238037624302986	0	)
(	0.553072625698324	0.14627112679915866	0	)
(	0.5698324022346368	0.1413523549206404	0	)
(	0.5865921787709497	0.137640614776541	0	)
(	0.6033519553072626	0.1351483982602419	0	)
(	0.6201117318435754	0.13388409294786546	0	)
(	0.6368715083798883	0.13385195386981547	0	)
(	0.6536312849162011	0.13505208919043543	0	)
(	0.6703910614525139	0.137480459843981	0	)
(	0.6871508379888268	0.14112889312812993	0	)
(	0.7039106145251397	0.1459851102092825	0	)
(	0.7206703910614525	0.15203276744708139	0	)
(	0.7374301675977654	0.15925151139907395	0	)
(	0.7541899441340782	0.16761704732039778	0	)
(	0.770949720670391	0.1771012209279535	0	)
(	0.7877094972067039	0.18767211315388704	0	)
(	0.8044692737430168	0.19929414756948638	0	)
(	0.8212290502793296	0.2119282101179591	0	)
(	0.8379888268156425	0.22553178075312658	0	)
(	0.8547486033519552	0.24005907654100506	0	)
(	0.8715083798882681	0.2554612057426643	0	)
(	0.888268156424581	0.2716863323597946	0	)
(	0.9050279329608938	0.2886798505892058	0	)
(	0.9217877094972067	0.3063845685991273	0	)
(	0.9385474860335196	0.32474090100880976	0	)
(	0.9553072625698323	0.34368706942363636	0	)
(	0.9720670391061452	0.36315931035084204	0	)
(	0.9888268156424581	0.38309208979609577	0	)
(	1.005586592178771	0.403418323818723	0	)
(	1.0223463687150838	0.42406960430328455	0	)
(	1.0391061452513966	0.444976429187678	0	)