/*--------------------------------*- C++ -*----------------------------------*\\
/*--------------------------------*- C++ -*----------------------------------*\\
| =========                 |                                                 |
| \\\\      /  F ield         | OpenFOAM: The Open Source CFD Toolbox           |
|  \\\\    /   O peration     | Version:  v2012                                 |
|   \\\\  /    A nd           | Website:  www.openfoam.com                      |
|    \\\\/     M anipulation  |                                                 |
\\*---------------------------------------------------------------------------*/
FoamFile
{
    version     2.0;
    format      ascii;
    class       dictionary;
    object      blockMeshDict;
}
// * * * * * * * * * * * * * * * * * * * * * * * * * * * * * * * * * * * * * //

scale   0.01;

xmin -1;
xmax 5;
ymin 0;
ymax 0.5;
zmin 0;
zmax 0.1;

vertices
(
    (-1.00000000 -0.03145226 0.00000000)
    (4.00000000 0.16244915 0.00000000)
    (4.00000000 0.66244915 0.00000000)
    (-1.00000000 0.46854774 0.00000000)
    (-1.00000000 -0.03145226 0.10000000)
    (4.00000000 0.16244915 0.10000000)
    (4.00000000 0.66244915 0.10000000)
    (-1.00000000 0.46854774 0.10000000)
);

blocks
(
    hex (0 1 2 3 4 5 6 7) (200 20 1) simpleGrading (1 1 1)
);

edges
(
	polyLine 0 1
	(
		(-1.00000000 -0.03145226 0.00000000)
		(-0.98000000 -0.03145226 0.00000000)
		(-0.96000000 -0.03145226 0.00000000)
		(-0.94000000 -0.03145226 0.00000000)
		(-0.92000000 -0.03145226 0.00000000)
		(-0.90000000 -0.03145226 0.00000000)
		(-0.88000000 -0.03145226 0.00000000)
		(-0.86000000 -0.03145226 0.00000000)
		(-0.84000000 -0.03145226 0.00000000)
		(-0.82000000 -0.03145226 0.00000000)
		(-0.80000000 -0.03145226 0.00000000)
		(-0.78000000 -0.03145226 0.00000000)
		(-0.76000000 -0.03145226 0.00000000)
		(-0.74000000 -0.03145226 0.00000000)
		(-0.72000000 -0.03145226 0.00000000)
		(-0.70000000 -0.03145226 0.00000000)
		(-0.68000000 -0.03145226 0.00000000)
		(-0.66000000 -0.03145226 0.00000000)
		(-0.64000000 -0.03145226 0.00000000)
		(-0.62000000 -0.03145226 0.00000000)
		(-0.60000000 -0.03145226 0.00000000)
		(-0.58000000 -0.03145226 0.00000000)
		(-0.56000000 -0.03145226 0.00000000)
		(-0.54000000 -0.03145226 0.00000000)
		(-0.52000000 -0.03145226 0.00000000)
		(-0.50000000 -0.03145226 0.00000000)
		(-0.48000000 -0.03145226 0.00000000)
		(-0.46000000 -0.03145226 0.00000000)
		(-0.44000000 -0.03145226 0.00000000)
		(-0.42000000 -0.03145226 0.00000000)
		(-0.40000000 -0.03145226 0.00000000)
		(-0.38000000 -0.03145226 0.00000000)
		(-0.36000000 -0.03145226 0.00000000)
		(-0.34000000 -0.03145226 0.00000000)
		(-0.32000000 -0.03145226 0.00000000)
		(-0.30000000 -0.03145226 0.00000000)
		(-0.28000000 -0.03145226 0.00000000)
		(-0.26000000 -0.03145226 0.00000000)
		(-0.24000000 -0.03145226 0.00000000)
		(-0.22000000 -0.03145226 0.00000000)
		(-0.20000000 -0.03145226 0.00000000)
		(-0.18000000 -0.03145226 0.00000000)
		(-0.16000000 -0.03145226 0.00000000)
		(-0.14000000 -0.03145226 0.00000000)
		(-0.12000000 -0.03145226 0.00000000)
		(-0.10000000 -0.03145226 0.00000000)
		(-0.08162011 -0.03212425 0.00000000)
		(-0.06324022 -0.03414023 0.00000000)
		(-0.04486034 -0.03750019 0.00000000)
		(-0.02648045 -0.04220414 0.00000000)
		(-0.00810056 -0.04825208 0.00000000)
		(0.01027933 -0.05564400 0.00000000)
		(0.02865922 -0.06437990 0.00000000)
		(0.04703911 -0.07445979 0.00000000)
		(0.06541899 -0.08588367 0.00000000)
		(0.08379888 -0.09865153 0.00000000)
		(0.10055866 -0.11133150 0.00000000)
		(0.11731844 -0.12366368 0.00000000)
		(0.13407821 -0.13560955 0.00000000)
		(0.15083799 -0.14713178 0.00000000)
		(0.16759777 -0.15819439 0.00000000)
		(0.18435754 -0.16876281 0.00000000)
		(0.20111732 -0.17880404 0.00000000)
		(0.21787709 -0.18828670 0.00000000)
		(0.23463687 -0.19718117 0.00000000)
		(0.25139665 -0.20545967 0.00000000)
		(0.26815642 -0.21309633 0.00000000)
		(0.28491620 -0.22006729 0.00000000)
		(0.30167598 -0.22635079 0.00000000)
		(0.31843575 -0.23192719 0.00000000)
		(0.33519553 -0.23677907 0.00000000)
		(0.35195531 -0.24089128 0.00000000)
		(0.36871508 -0.24425096 0.00000000)
		(0.38547486 -0.24684763 0.00000000)
		(0.40223464 -0.24867317 0.00000000)
		(0.41899441 -0.24972188 0.00000000)
		(0.43575419 -0.24999048 0.00000000)
		(0.45251397 -0.24947814 0.00000000)
		(0.46927374 -0.24818645 0.00000000)
		(0.48603352 -0.24611945 0.00000000)
		(0.50279330 -0.24328360 0.00000000)
		(0.51955307 -0.23968775 0.00000000)
		(0.53631285 -0.23534314 0.00000000)
		(0.55307263 -0.23026334 0.00000000)
		(0.56983240 -0.22446422 0.00000000)
		(0.58659218 -0.21796390 0.00000000)
		(0.60335196 -0.21078268 0.00000000)
		(0.62011173 -0.20294299 0.00000000)
		(0.63687151 -0.19446933 0.00000000)
		(0.65363128 -0.18538816 0.00000000)
		(0.67039106 -0.17572786 0.00000000)
		(0.68715084 -0.16551861 0.00000000)
		(0.70391061 -0.15479229 0.00000000)
		(0.72067039 -0.14358241 0.00000000)
		(0.73743017 -0.13192400 0.00000000)
		(0.75418994 -0.11985347 0.00000000)
		(0.77094972 -0.10740852 0.00000000)
		(0.78770950 -0.09462805 0.00000000)
		(0.80446927 -0.08155196 0.00000000)
		(0.82122905 -0.06822111 0.00000000)
		(0.83798883 -0.05467715 0.00000000)
		(0.85474860 -0.04096238 0.00000000)
		(0.87150838 -0.02711965 0.00000000)
		(0.88826816 -0.01319220 0.00000000)
		(0.90502793 0.00077646 0.00000000)
		(0.92178771 0.01474269 0.00000000)
		(0.93854749 0.02866287 0.00000000)
		(0.95530726 0.04249352 0.00000000)
		(0.97206704 0.05619141 0.00000000)
		(0.98882682 0.06971377 0.00000000)
		(1.00558659 0.08301835 0.00000000)
		(1.02234637 0.09606359 0.00000000)
		(1.03910615 0.10880873 0.00000000)
		(1.05586592 0.12121397 0.00000000)
		(1.07262570 0.13324054 0.00000000)
		(1.08938547 0.14485089 0.00000000)
		(1.10614525 0.15600874 0.00000000)
		(1.12290503 0.16667922 0.00000000)
		(1.13966480 0.17682902 0.00000000)
		(1.15642458 0.18642643 0.00000000)
		(1.17318436 0.19544145 0.00000000)
		(1.18994413 0.20384593 0.00000000)
		(1.20670391 0.21161362 0.00000000)
		(1.22346369 0.21872025 0.00000000)
		(1.24022346 0.22514362 0.00000000)
		(1.25698324 0.23086366 0.00000000)
		(1.27374302 0.23586250 0.00000000)
		(1.29050279 0.24012454 0.00000000)
		(1.30726257 0.24363644 0.00000000)
		(1.32402235 0.24638725 0.00000000)
		(1.34078212 0.24836837 0.00000000)
		(1.35754190 0.24957361 0.00000000)
		(1.37430168 0.24999921 0.00000000)
		(1.39106145 0.24964383 0.00000000)
		(1.40782123 0.24850859 0.00000000)
		(1.42458101 0.24659704 0.00000000)
		(1.44134078 0.24391514 0.00000000)
		(1.45810056 0.24047127 0.00000000)
		(1.47486034 0.23627619 0.00000000)
		(1.49162011 0.23134301 0.00000000)
		(1.50837989 0.22568713 0.00000000)
		(1.52513966 0.21932623 0.00000000)
		(1.54189944 0.21228018 0.00000000)
		(1.55865922 0.20457098 0.00000000)
		(1.57541899 0.19622272 0.00000000)
		(1.59217877 0.18726148 0.00000000)
		(1.60893855 0.17771526 0.00000000)
		(1.62569832 0.16761387 0.00000000)
		(1.64245810 0.15698887 0.00000000)
		(1.65921788 0.14587345 0.00000000)
		(1.67597765 0.13430234 0.00000000)
		(1.69273743 0.12231168 0.00000000)
		(1.70949721 0.10993893 0.00000000)
		(1.72625698 0.09722274 0.00000000)
		(1.74301676 0.08420283 0.00000000)
		(1.75977654 0.07091989 0.00000000)
		(1.77653631 0.05741540 0.00000000)
		(1.79329609 0.04373155 0.00000000)
		(1.81005587 0.02991108 0.00000000)
		(1.82681564 0.01599718 0.00000000)
		(1.84357542 0.00203330 0.00000000)
		(1.86033520 -0.01193693 0.00000000)
		(1.87709497 -0.02586987 0.00000000)
		(1.89385475 -0.03972200 0.00000000)
		(1.91061453 -0.05345003 0.00000000)
		(1.92737430 -0.06701110 0.00000000)
		(1.94413408 -0.08036283 0.00000000)
		(1.96089385 -0.09346351 0.00000000)
		(1.97765363 -0.10627222 0.00000000)
		(1.99441341 -0.11874895 0.00000000)
		(2.01117318 -0.13085471 0.00000000)
		(2.02793296 -0.14255170 0.00000000)
		(2.04469274 -0.15380338 0.00000000)
		(2.06145251 -0.16457458 0.00000000)
		(2.07821229 -0.17483167 0.00000000)
		(2.09497207 -0.18454260 0.00000000)
		(2.11173184 -0.19367704 0.00000000)
		(2.12849162 -0.20220645 0.00000000)
		(2.14525140 -0.21010419 0.00000000)
		(2.16201117 -0.21734558 0.00000000)
		(2.17877095 -0.22390801 0.00000000)
		(2.19553073 -0.22977097 0.00000000)
		(2.21229050 -0.23491614 0.00000000)
		(2.22905028 -0.23932746 0.00000000)
		(2.24581006 -0.24299115 0.00000000)
		(2.26256983 -0.24589575 0.00000000)
		(2.27932961 -0.24803220 0.00000000)
		(2.29608939 -0.24939382 0.00000000)
		(2.31284916 -0.24997636 0.00000000)
		(2.32960894 -0.24977799 0.00000000)
		(2.34636872 -0.24879935 0.00000000)
		(2.36312849 -0.24704348 0.00000000)
		(2.37988827 -0.24451586 0.00000000)
		(2.39664804 -0.24122441 0.00000000)
		(2.41340782 -0.23717939 0.00000000)
		(2.43016760 -0.23239345 0.00000000)
		(2.44692737 -0.22688153 0.00000000)
		(2.46368715 -0.22066086 0.00000000)
		(2.48044693 -0.21375086 0.00000000)
		(2.49720670 -0.20617313 0.00000000)
		(2.51396648 -0.19795133 0.00000000)
		(2.53072626 -0.18911115 0.00000000)
		(2.54748603 -0.17968020 0.00000000)
		(2.56424581 -0.16968795 0.00000000)
		(2.58100559 -0.15916562 0.00000000)
		(2.59776536 -0.14814606 0.00000000)
		(2.61452514 -0.13666371 0.00000000)
		(2.63128492 -0.12475444 0.00000000)
		(2.64804469 -0.11245544 0.00000000)
		(2.66480447 -0.09980515 0.00000000)
		(2.68156425 -0.08684307 0.00000000)
		(2.69832402 -0.07360971 0.00000000)
		(2.71508380 -0.06014639 0.00000000)
		(2.73184358 -0.04649519 0.00000000)
		(2.74860335 -0.03269873 0.00000000)
		(2.76536313 -0.01880013 0.00000000)
		(2.78212291 -0.00484280 0.00000000)
		(2.79888268 0.00912966 0.00000000)
		(2.81564246 0.02307360 0.00000000)
		(2.83240223 0.03694546 0.00000000)
		(2.84916201 0.05070190 0.00000000)
		(2.86592179 0.06429996 0.00000000)
		(2.88268156 0.07769715 0.00000000)
		(2.89944134 0.09085162 0.00000000)
		(2.91620112 0.10372228 0.00000000)
		(2.93296089 0.11626892 0.00000000)
		(2.95166480 0.12504317 0.00000000)
		(2.97036872 0.13289380 0.00000000)
		(2.98907263 0.13982084 0.00000000)
		(3.00777654 0.14582427 0.00000000)
		(3.02648045 0.15090409 0.00000000)
		(3.04518436 0.15506031 0.00000000)
		(3.06388827 0.15829293 0.00000000)
		(3.08259218 0.16060194 0.00000000)
		(3.10129609 0.16198735 0.00000000)
		(3.12000000 0.16244915 0.00000000)
		(3.14000000 0.16244915 0.00000000)
		(3.16000000 0.16244915 0.00000000)
		(3.18000000 0.16244915 0.00000000)
		(3.20000000 0.16244915 0.00000000)
		(3.22000000 0.16244915 0.00000000)
		(3.24000000 0.16244915 0.00000000)
		(3.26000000 0.16244915 0.00000000)
		(3.28000000 0.16244915 0.00000000)
		(3.30000000 0.16244915 0.00000000)
		(3.32000000 0.16244915 0.00000000)
		(3.34000000 0.16244915 0.00000000)
		(3.36000000 0.16244915 0.00000000)
		(3.38000000 0.16244915 0.00000000)
		(3.40000000 0.16244915 0.00000000)
		(3.42000000 0.16244915 0.00000000)
		(3.44000000 0.16244915 0.00000000)
		(3.46000000 0.16244915 0.00000000)
		(3.48000000 0.16244915 0.00000000)
		(3.50000000 0.16244915 0.00000000)
		(3.52000000 0.16244915 0.00000000)
		(3.54000000 0.16244915 0.00000000)
		(3.56000000 0.16244915 0.00000000)
		(3.58000000 0.16244915 0.00000000)
		(3.60000000 0.16244915 0.00000000)
		(3.62000000 0.16244915 0.00000000)
		(3.64000000 0.16244915 0.00000000)
		(3.66000000 0.16244915 0.00000000)
		(3.68000000 0.16244915 0.00000000)
		(3.70000000 0.16244915 0.00000000)
		(3.72000000 0.16244915 0.00000000)
		(3.74000000 0.16244915 0.00000000)
		(3.76000000 0.16244915 0.00000000)
		(3.78000000 0.16244915 0.00000000)
		(3.80000000 0.16244915 0.00000000)
		(3.82000000 0.16244915 0.00000000)
		(3.84000000 0.16244915 0.00000000)
		(3.86000000 0.16244915 0.00000000)
		(3.88000000 0.16244915 0.00000000)
		(3.90000000 0.16244915 0.00000000)
		(3.92000000 0.16244915 0.00000000)
		(3.94000000 0.16244915 0.00000000)
		(3.96000000 0.16244915 0.00000000)
		(3.98000000 0.16244915 0.00000000)
		(4.00000000 0.16244915 0.00000000)
	)
	polyLine 4 5
	(
		(-1.00000000 -0.03145226 0.10000000)
		(-0.98000000 -0.03145226 0.10000000)
		(-0.96000000 -0.03145226 0.10000000)
		(-0.94000000 -0.03145226 0.10000000)
		(-0.92000000 -0.03145226 0.10000000)
		(-0.90000000 -0.03145226 0.10000000)
		(-0.88000000 -0.03145226 0.10000000)
		(-0.86000000 -0.03145226 0.10000000)
		(-0.84000000 -0.03145226 0.10000000)
		(-0.82000000 -0.03145226 0.10000000)
		(-0.80000000 -0.03145226 0.10000000)
		(-0.78000000 -0.03145226 0.10000000)
		(-0.76000000 -0.03145226 0.10000000)
		(-0.74000000 -0.03145226 0.10000000)
		(-0.72000000 -0.03145226 0.10000000)
		(-0.70000000 -0.03145226 0.10000000)
		(-0.68000000 -0.03145226 0.10000000)
		(-0.66000000 -0.03145226 0.10000000)
		(-0.64000000 -0.03145226 0.10000000)
		(-0.62000000 -0.03145226 0.10000000)
		(-0.60000000 -0.03145226 0.10000000)
		(-0.58000000 -0.03145226 0.10000000)
		(-0.56000000 -0.03145226 0.10000000)
		(-0.54000000 -0.03145226 0.10000000)
		(-0.52000000 -0.03145226 0.10000000)
		(-0.50000000 -0.03145226 0.10000000)
		(-0.48000000 -0.03145226 0.10000000)
		(-0.46000000 -0.03145226 0.10000000)
		(-0.44000000 -0.03145226 0.10000000)
		(-0.42000000 -0.03145226 0.10000000)
		(-0.40000000 -0.03145226 0.10000000)
		(-0.38000000 -0.03145226 0.10000000)
		(-0.36000000 -0.03145226 0.10000000)
		(-0.34000000 -0.03145226 0.10000000)
		(-0.32000000 -0.03145226 0.10000000)
		(-0.30000000 -0.03145226 0.10000000)
		(-0.28000000 -0.03145226 0.10000000)
		(-0.26000000 -0.03145226 0.10000000)
		(-0.24000000 -0.03145226 0.10000000)
		(-0.22000000 -0.03145226 0.10000000)
		(-0.20000000 -0.03145226 0.10000000)
		(-0.18000000 -0.03145226 0.10000000)
		(-0.16000000 -0.03145226 0.10000000)
		(-0.14000000 -0.03145226 0.10000000)
		(-0.12000000 -0.03145226 0.10000000)
		(-0.10000000 -0.03145226 0.10000000)
		(-0.08162011 -0.03212425 0.10000000)
		(-0.06324022 -0.03414023 0.10000000)
		(-0.04486034 -0.03750019 0.10000000)
		(-0.02648045 -0.04220414 0.10000000)
		(-0.00810056 -0.04825208 0.10000000)
		(0.01027933 -0.05564400 0.10000000)
		(0.02865922 -0.06437990 0.10000000)
		(0.04703911 -0.07445979 0.10000000)
		(0.06541899 -0.08588367 0.10000000)
		(0.08379888 -0.09865153 0.10000000)
		(0.10055866 -0.11133150 0.10000000)
		(0.11731844 -0.12366368 0.10000000)
		(0.13407821 -0.13560955 0.10000000)
		(0.15083799 -0.14713178 0.10000000)
		(0.16759777 -0.15819439 0.10000000)
		(0.18435754 -0.16876281 0.10000000)
		(0.20111732 -0.17880404 0.10000000)
		(0.21787709 -0.18828670 0.10000000)
		(0.23463687 -0.19718117 0.10000000)
		(0.25139665 -0.20545967 0.10000000)
		(0.26815642 -0.21309633 0.10000000)
		(0.28491620 -0.22006729 0.10000000)
		(0.30167598 -0.22635079 0.10000000)
		(0.31843575 -0.23192719 0.10000000)
		(0.33519553 -0.23677907 0.10000000)
		(0.35195531 -0.24089128 0.10000000)
		(0.36871508 -0.24425096 0.10000000)
		(0.38547486 -0.24684763 0.10000000)
		(0.40223464 -0.24867317 0.10000000)
		(0.41899441 -0.24972188 0.10000000)
		(0.43575419 -0.24999048 0.10000000)
		(0.45251397 -0.24947814 0.10000000)
		(0.46927374 -0.24818645 0.10000000)
		(0.48603352 -0.24611945 0.10000000)
		(0.50279330 -0.24328360 0.10000000)
		(0.51955307 -0.23968775 0.10000000)
		(0.53631285 -0.23534314 0.10000000)
		(0.55307263 -0.23026334 0.10000000)
		(0.56983240 -0.22446422 0.10000000)
		(0.58659218 -0.21796390 0.10000000)
		(0.60335196 -0.21078268 0.10000000)
		(0.62011173 -0.20294299 0.10000000)
		(0.63687151 -0.19446933 0.10000000)
		(0.65363128 -0.18538816 0.10000000)
		(0.67039106 -0.17572786 0.10000000)
		(0.68715084 -0.16551861 0.10000000)
		(0.70391061 -0.15479229 0.10000000)
		(0.72067039 -0.14358241 0.10000000)
		(0.73743017 -0.13192400 0.10000000)
		(0.75418994 -0.11985347 0.10000000)
		(0.77094972 -0.10740852 0.10000000)
		(0.78770950 -0.09462805 0.10000000)
		(0.80446927 -0.08155196 0.10000000)
		(0.82122905 -0.06822111 0.10000000)
		(0.83798883 -0.05467715 0.10000000)
		(0.85474860 -0.04096238 0.10000000)
		(0.87150838 -0.02711965 0.10000000)
		(0.88826816 -0.01319220 0.10000000)
		(0.90502793 0.00077646 0.10000000)
		(0.92178771 0.01474269 0.10000000)
		(0.93854749 0.02866287 0.10000000)
		(0.95530726 0.04249352 0.10000000)
		(0.97206704 0.05619141 0.10000000)
		(0.98882682 0.06971377 0.10000000)
		(1.00558659 0.08301835 0.10000000)
		(1.02234637 0.09606359 0.10000000)
		(1.03910615 0.10880873 0.10000000)
		(1.05586592 0.12121397 0.10000000)
		(1.07262570 0.13324054 0.10000000)
		(1.08938547 0.14485089 0.10000000)
		(1.10614525 0.15600874 0.10000000)
		(1.12290503 0.16667922 0.10000000)
		(1.13966480 0.17682902 0.10000000)
		(1.15642458 0.18642643 0.10000000)
		(1.17318436 0.19544145 0.10000000)
		(1.18994413 0.20384593 0.10000000)
		(1.20670391 0.21161362 0.10000000)
		(1.22346369 0.21872025 0.10000000)
		(1.24022346 0.22514362 0.10000000)
		(1.25698324 0.23086366 0.10000000)
		(1.27374302 0.23586250 0.10000000)
		(1.29050279 0.24012454 0.10000000)
		(1.30726257 0.24363644 0.10000000)
		(1.32402235 0.24638725 0.10000000)
		(1.34078212 0.24836837 0.10000000)
		(1.35754190 0.24957361 0.10000000)
		(1.37430168 0.24999921 0.10000000)
		(1.39106145 0.24964383 0.10000000)
		(1.40782123 0.24850859 0.10000000)
		(1.42458101 0.24659704 0.10000000)
		(1.44134078 0.24391514 0.10000000)
		(1.45810056 0.24047127 0.10000000)
		(1.47486034 0.23627619 0.10000000)
		(1.49162011 0.23134301 0.10000000)
		(1.50837989 0.22568713 0.10000000)
		(1.52513966 0.21932623 0.10000000)
		(1.54189944 0.21228018 0.10000000)
		(1.55865922 0.20457098 0.10000000)
		(1.57541899 0.19622272 0.10000000)
		(1.59217877 0.18726148 0.10000000)
		(1.60893855 0.17771526 0.10000000)
		(1.62569832 0.16761387 0.10000000)
		(1.64245810 0.15698887 0.10000000)
		(1.65921788 0.14587345 0.10000000)
		(1.67597765 0.13430234 0.10000000)
		(1.69273743 0.12231168 0.10000000)
		(1.70949721 0.10993893 0.10000000)
		(1.72625698 0.09722274 0.10000000)
		(1.74301676 0.08420283 0.10000000)
		(1.75977654 0.07091989 0.10000000)
		(1.77653631 0.05741540 0.10000000)
		(1.79329609 0.04373155 0.10000000)
		(1.81005587 0.02991108 0.10000000)
		(1.82681564 0.01599718 0.10000000)
		(1.84357542 0.00203330 0.10000000)
		(1.86033520 -0.01193693 0.10000000)
		(1.87709497 -0.02586987 0.10000000)
		(1.89385475 -0.03972200 0.10000000)
		(1.91061453 -0.05345003 0.10000000)
		(1.92737430 -0.06701110 0.10000000)
		(1.94413408 -0.08036283 0.10000000)
		(1.96089385 -0.09346351 0.10000000)
		(1.97765363 -0.10627222 0.10000000)
		(1.99441341 -0.11874895 0.10000000)
		(2.01117318 -0.13085471 0.10000000)
		(2.02793296 -0.14255170 0.10000000)
		(2.04469274 -0.15380338 0.10000000)
		(2.06145251 -0.16457458 0.10000000)
		(2.07821229 -0.17483167 0.10000000)
		(2.09497207 -0.18454260 0.10000000)
		(2.11173184 -0.19367704 0.10000000)
		(2.12849162 -0.20220645 0.10000000)
		(2.14525140 -0.21010419 0.10000000)
		(2.16201117 -0.21734558 0.10000000)
		(2.17877095 -0.22390801 0.10000000)
		(2.19553073 -0.22977097 0.10000000)
		(2.21229050 -0.23491614 0.10000000)
		(2.22905028 -0.23932746 0.10000000)
		(2.24581006 -0.24299115 0.10000000)
		(2.26256983 -0.24589575 0.10000000)
		(2.27932961 -0.24803220 0.10000000)
		(2.29608939 -0.24939382 0.10000000)
		(2.31284916 -0.24997636 0.10000000)
		(2.32960894 -0.24977799 0.10000000)
		(2.34636872 -0.24879935 0.10000000)
		(2.36312849 -0.24704348 0.10000000)
		(2.37988827 -0.24451586 0.10000000)
		(2.39664804 -0.24122441 0.10000000)
		(2.41340782 -0.23717939 0.10000000)
		(2.43016760 -0.23239345 0.10000000)
		(2.44692737 -0.22688153 0.10000000)
		(2.46368715 -0.22066086 0.10000000)
		(2.48044693 -0.21375086 0.10000000)
		(2.49720670 -0.20617313 0.10000000)
		(2.51396648 -0.19795133 0.10000000)
		(2.53072626 -0.18911115 0.10000000)
		(2.54748603 -0.17968020 0.10000000)
		(2.56424581 -0.16968795 0.10000000)
		(2.58100559 -0.15916562 0.10000000)
		(2.59776536 -0.14814606 0.10000000)
		(2.61452514 -0.13666371 0.10000000)
		(2.63128492 -0.12475444 0.10000000)
		(2.64804469 -0.11245544 0.10000000)
		(2.66480447 -0.09980515 0.10000000)
		(2.68156425 -0.08684307 0.10000000)
		(2.69832402 -0.07360971 0.10000000)
		(2.71508380 -0.06014639 0.10000000)
		(2.73184358 -0.04649519 0.10000000)
		(2.74860335 -0.03269873 0.10000000)
		(2.76536313 -0.01880013 0.10000000)
		(2.78212291 -0.00484280 0.10000000)
		(2.79888268 0.00912966 0.10000000)
		(2.81564246 0.02307360 0.10000000)
		(2.83240223 0.03694546 0.10000000)
		(2.84916201 0.05070190 0.10000000)
		(2.86592179 0.06429996 0.10000000)
		(2.88268156 0.07769715 0.10000000)
		(2.89944134 0.09085162 0.10000000)
		(2.91620112 0.10372228 0.10000000)
		(2.93296089 0.11626892 0.10000000)
		(2.95166480 0.12504317 0.10000000)
		(2.97036872 0.13289380 0.10000000)
		(2.98907263 0.13982084 0.10000000)
		(3.00777654 0.14582427 0.10000000)
		(3.02648045 0.15090409 0.10000000)
		(3.04518436 0.15506031 0.10000000)
		(3.06388827 0.15829293 0.10000000)
		(3.08259218 0.16060194 0.10000000)
		(3.10129609 0.16198735 0.10000000)
		(3.12000000 0.16244915 0.10000000)
		(3.14000000 0.16244915 0.10000000)
		(3.16000000 0.16244915 0.10000000)
		(3.18000000 0.16244915 0.10000000)
		(3.20000000 0.16244915 0.10000000)
		(3.22000000 0.16244915 0.10000000)
		(3.24000000 0.16244915 0.10000000)
		(3.26000000 0.16244915 0.10000000)
		(3.28000000 0.16244915 0.10000000)
		(3.30000000 0.16244915 0.10000000)
		(3.32000000 0.16244915 0.10000000)
		(3.34000000 0.16244915 0.10000000)
		(3.36000000 0.16244915 0.10000000)
		(3.38000000 0.16244915 0.10000000)
		(3.40000000 0.16244915 0.10000000)
		(3.42000000 0.16244915 0.10000000)
		(3.44000000 0.16244915 0.10000000)
		(3.46000000 0.16244915 0.10000000)
		(3.48000000 0.16244915 0.10000000)
		(3.50000000 0.16244915 0.10000000)
		(3.52000000 0.16244915 0.10000000)
		(3.54000000 0.16244915 0.10000000)
		(3.56000000 0.16244915 0.10000000)
		(3.58000000 0.16244915 0.10000000)
		(3.60000000 0.16244915 0.10000000)
		(3.62000000 0.16244915 0.10000000)
		(3.64000000 0.16244915 0.10000000)
		(3.66000000 0.16244915 0.10000000)
		(3.68000000 0.16244915 0.10000000)
		(3.70000000 0.16244915 0.10000000)
		(3.72000000 0.16244915 0.10000000)
		(3.74000000 0.16244915 0.10000000)
		(3.76000000 0.16244915 0.10000000)
		(3.78000000 0.16244915 0.10000000)
		(3.80000000 0.16244915 0.10000000)
		(3.82000000 0.16244915 0.10000000)
		(3.84000000 0.16244915 0.10000000)
		(3.86000000 0.16244915 0.10000000)
		(3.88000000 0.16244915 0.10000000)
		(3.90000000 0.16244915 0.10000000)
		(3.92000000 0.16244915 0.10000000)
		(3.94000000 0.16244915 0.10000000)
		(3.96000000 0.16244915 0.10000000)
		(3.98000000 0.16244915 0.10000000)
		(4.00000000 0.16244915 0.10000000)
	)
	polyLine 3 2
	(
		(-1.00000000 0.46854774 0.00000000)
		(-0.98000000 0.46853895 0.00000000)
		(-0.96000000 0.46853016 0.00000000)
		(-0.94000000 0.46852136 0.00000000)
		(-0.92000000 0.46851257 0.00000000)
		(-0.90000000 0.46850378 0.00000000)
		(-0.88000000 0.46849499 0.00000000)
		(-0.86000000 0.46848619 0.00000000)
		(-0.84000000 0.46847740 0.00000000)
		(-0.82000000 0.46846861 0.00000000)
		(-0.80000000 0.46845981 0.00000000)
		(-0.78000000 0.46845102 0.00000000)
		(-0.76000000 0.46844223 0.00000000)
		(-0.74000000 0.46843344 0.00000000)
		(-0.72000000 0.46842464 0.00000000)
		(-0.70000000 0.46841585 0.00000000)
		(-0.68000000 0.46840706 0.00000000)
		(-0.66000000 0.46839827 0.00000000)
		(-0.64000000 0.46838947 0.00000000)
		(-0.62000000 0.46838068 0.00000000)
		(-0.60000000 0.46837189 0.00000000)
		(-0.58000000 0.46836310 0.00000000)
		(-0.56000000 0.46835430 0.00000000)
		(-0.54000000 0.46834551 0.00000000)
		(-0.52000000 0.46833672 0.00000000)
		(-0.50000000 0.46832793 0.00000000)
		(-0.48000000 0.46831913 0.00000000)
		(-0.46000000 0.46831034 0.00000000)
		(-0.44000000 0.46830155 0.00000000)
		(-0.42000000 0.46829276 0.00000000)
		(-0.40000000 0.46828396 0.00000000)
		(-0.38000000 0.46827517 0.00000000)
		(-0.36000000 0.46826638 0.00000000)
		(-0.34000000 0.46825758 0.00000000)
		(-0.32000000 0.46824879 0.00000000)
		(-0.30000000 0.46824000 0.00000000)
		(-0.28000000 0.46823121 0.00000000)
		(-0.26000000 0.46822241 0.00000000)
		(-0.24000000 0.46821362 0.00000000)
		(-0.22000000 0.46820483 0.00000000)
		(-0.20000000 0.46819604 0.00000000)
		(-0.18000000 0.46818724 0.00000000)
		(-0.16000000 0.46817845 0.00000000)
		(-0.14000000 0.46816966 0.00000000)
		(-0.12000000 0.46816087 0.00000000)
		(-0.10000000 0.46815207 0.00000000)
		(-0.08162011 0.46860201 0.00000000)
		(-0.06324022 0.46743740 0.00000000)
		(-0.04486034 0.46465826 0.00000000)
		(-0.02648045 0.46026457 0.00000000)
		(-0.00810056 0.45425635 0.00000000)
		(0.01027933 0.44663358 0.00000000)
		(0.02865922 0.43739628 0.00000000)
		(0.04703911 0.42654443 0.00000000)
		(0.06541899 0.41407805 0.00000000)
		(0.08379888 0.39999712 0.00000000)
		(0.10055866 0.38714346 0.00000000)
		(0.11731844 0.37464236 0.00000000)
		(0.13407821 0.36253285 0.00000000)
		(0.15083799 0.35085279 0.00000000)
		(0.16759777 0.33963864 0.00000000)
		(0.18435754 0.32892545 0.00000000)
		(0.20111732 0.31874667 0.00000000)
		(0.21787709 0.30913412 0.00000000)
		(0.23463687 0.30011781 0.00000000)
		(0.25139665 0.29172592 0.00000000)
		(0.26815642 0.28398465 0.00000000)
		(0.28491620 0.27691819 0.00000000)
		(0.30167598 0.27054862 0.00000000)
		(0.31843575 0.26489584 0.00000000)
		(0.33519553 0.25997749 0.00000000)
		(0.35195531 0.25580896 0.00000000)
		(0.36871508 0.25240325 0.00000000)
		(0.38547486 0.24977101 0.00000000)
		(0.40223464 0.24792046 0.00000000)
		(0.41899441 0.24685739 0.00000000)
		(0.43575419 0.24658511 0.00000000)
		(0.45251397 0.24710447 0.00000000)
		(0.46927374 0.24841385 0.00000000)
		(0.48603352 0.25050917 0.00000000)
		(0.50279330 0.25338387 0.00000000)
		(0.51955307 0.25702897 0.00000000)
		(0.53631285 0.26143309 0.00000000)
		(0.55307263 0.26658248 0.00000000)
		(0.56983240 0.27246103 0.00000000)
		(0.58659218 0.27905040 0.00000000)
		(0.60335196 0.28632999 0.00000000)
		(0.62011173 0.29427707 0.00000000)
		(0.63687151 0.30286680 0.00000000)
		(0.65363128 0.31207236 0.00000000)
		(0.67039106 0.32186499 0.00000000)
		(0.68715084 0.33221409 0.00000000)
		(0.70391061 0.34308734 0.00000000)
		(0.72067039 0.35445077 0.00000000)
		(0.73743017 0.36626889 0.00000000)
		(0.75418994 0.37850476 0.00000000)
		(0.77094972 0.39112018 0.00000000)
		(0.78770950 0.40407572 0.00000000)
		(0.80446927 0.41733093 0.00000000)
		(0.82122905 0.43084438 0.00000000)
		(0.83798883 0.44457387 0.00000000)
		(0.85474860 0.45847651 0.00000000)
		(0.87150838 0.47250886 0.00000000)
		(0.88826816 0.48662709 0.00000000)
		(0.90502793 0.50078709 0.00000000)
		(0.92178771 0.51494464 0.00000000)
		(0.93854749 0.52905550 0.00000000)
		(0.95530726 0.54307560 0.00000000)
		(0.97206704 0.55696113 0.00000000)
		(0.98882682 0.57066872 0.00000000)
		(1.00558659 0.58415555 0.00000000)
		(1.02234637 0.59737948 0.00000000)
		(1.03910615 0.61029921 0.00000000)
		(1.05586592 0.62287438 0.00000000)
		(1.07262570 0.63506569 0.00000000)
		(1.08938547 0.64683508 0.00000000)
		(1.10614525 0.65814577 0.00000000)
		(1.12290503 0.66896242 0.00000000)
		(1.13966480 0.67925126 0.00000000)
		(1.15642458 0.68898012 0.00000000)
		(1.17318436 0.69811864 0.00000000)
		(1.18994413 0.70663825 0.00000000)
		(1.20670391 0.71451234 0.00000000)
		(1.22346369 0.72171632 0.00000000)
		(1.24022346 0.72822767 0.00000000)
		(1.25698324 0.73402606 0.00000000)
		(1.27374302 0.73909338 0.00000000)
		(1.29050279 0.74341380 0.00000000)
		(1.30726257 0.74697381 0.00000000)
		(1.32402235 0.74976230 0.00000000)
		(1.34078212 0.75177056 0.00000000)
		(1.35754190 0.75299231 0.00000000)
		(1.37430168 0.75342374 0.00000000)
		(1.39106145 0.75306349 0.00000000)
		(1.40782123 0.75191270 0.00000000)
		(1.42458101 0.74997496 0.00000000)
		(1.44134078 0.74725632 0.00000000)
		(1.45810056 0.74376528 0.00000000)
		(1.47486034 0.73951274 0.00000000)
		(1.49162011 0.73451198 0.00000000)
		(1.50837989 0.72877863 0.00000000)
		(1.52513966 0.72233060 0.00000000)
		(1.54189944 0.71518802 0.00000000)
		(1.55865922 0.70737322 0.00000000)
		(1.57541899 0.69891061 0.00000000)
		(1.59217877 0.68982662 0.00000000)
		(1.60893855 0.68014963 0.00000000)
		(1.62569832 0.66990987 0.00000000)
		(1.64245810 0.65913933 0.00000000)
		(1.65921788 0.64787165 0.00000000)
		(1.67597765 0.63614203 0.00000000)
		(1.69273743 0.62398712 0.00000000)
		(1.70949721 0.61144489 0.00000000)
		(1.72625698 0.59855451 0.00000000)
		(1.74301676 0.58535626 0.00000000)
		(1.75977654 0.57189136 0.00000000)
		(1.77653631 0.55820188 0.00000000)
		(1.79329609 0.54433059 0.00000000)
		(1.81005587 0.53032081 0.00000000)
		(1.82681564 0.51621631 0.00000000)
		(1.84357542 0.50206115 0.00000000)
		(1.86033520 0.48789956 0.00000000)
		(1.87709497 0.47377576 0.00000000)
		(1.89385475 0.45973389 0.00000000)
		(1.91061453 0.44581780 0.00000000)
		(1.92737430 0.43207097 0.00000000)
		(1.94413408 0.41853635 0.00000000)
		(1.96089385 0.40525621 0.00000000)
		(1.97765363 0.39227205 0.00000000)
		(1.99441341 0.37962441 0.00000000)
		(2.01117318 0.36735282 0.00000000)
		(2.02793296 0.35549560 0.00000000)
		(2.04469274 0.34408980 0.00000000)
		(2.06145251 0.33317105 0.00000000)
		(2.07821229 0.32277346 0.00000000)
		(2.09497207 0.31292950 0.00000000)
		(2.11173184 0.30366994 0.00000000)
		(2.12849162 0.29502369 0.00000000)
		(2.14525140 0.28701777 0.00000000)
		(2.16201117 0.27967718 0.00000000)
		(2.17877095 0.27302487 0.00000000)
		(2.19553073 0.26708160 0.00000000)
		(2.21229050 0.26186594 0.00000000)
		(2.22905028 0.25739419 0.00000000)
		(2.24581006 0.25368032 0.00000000)
		(2.26256983 0.25073593 0.00000000)
		(2.27932961 0.24857022 0.00000000)
		(2.29608939 0.24718994 0.00000000)
		(2.31284916 0.24659943 0.00000000)
		(2.32960894 0.24680051 0.00000000)
		(2.34636872 0.24779256 0.00000000)
		(2.36312849 0.24957248 0.00000000)
		(2.37988827 0.25213472 0.00000000)
		(2.39664804 0.25547126 0.00000000)
		(2.41340782 0.25957169 0.00000000)
		(2.43016760 0.26442319 0.00000000)
		(2.44692737 0.27001061 0.00000000)
		(2.46368715 0.27631650 0.00000000)
		(2.48044693 0.28332115 0.00000000)
		(2.49720670 0.29100268 0.00000000)