/*--------------------------------*- C++ -*----------------------------------*\\
/*--------------------------------*- C++ -*----------------------------------*\\
| =========                 |                                                 |
| \\\\      /  F ield         | OpenFOAM: The Open Source CFD Toolbox           |
|  \\\\    /   O peration     | Version:  v2012                                 |
|   \\\\  /    A nd           | Website:  www.openfoam.com                      |
|    \\\\/     M anipulation  |                                                 |
\\*---------------------------------------------------------------------------*/
FoamFile
{
    version     2.0;
    format      ascii;
    class       dictionary;
    object      blockMeshDict;
}
// * * * * * * * * * * * * * * * * * * * * * * * * * * * * * * * * * * * * * //

scale   0.01;

xmin -1;
xmax 5;
ymin 0;
ymax 0.5;
zmin 0;
zmax 0.1;

vertices
(
    (-1.00000000 -0.23277446 0.00000000)
    (4.00000000 0.02195915 0.00000000)
    (4.00000000 0.52195915 0.00000000)
    (-1.00000000 0.26722554 0.00000000)
    (-1.00000000 -0.23277446 0.10000000)
    (4.00000000 0.02195915 0.10000000)
    (4.00000000 0.52195915 0.10000000)
    (-1.00000000 0.26722554 0.10000000)
);

blocks
(
    hex (0 1 2 3 4 5 6 7) (200 20 1) simpleGrading (1 1 1)
);

edges
(
	polyLine 0 1
	(
		(-1.00000000 -0.23277446 0.00000000)
		(-0.98000000 -0.23277446 0.00000000)
		(-0.96000000 -0.23277446 0.00000000)
		(-0.94000000 -0.23277446 0.00000000)
		(-0.92000000 -0.23277446 0.00000000)
		(-0.90000000 -0.23277446 0.00000000)
		(-0.88000000 -0.23277446 0.00000000)
		(-0.86000000 -0.23277446 0.00000000)
		(-0.84000000 -0.23277446 0.00000000)
		(-0.82000000 -0.23277446 0.00000000)
		(-0.80000000 -0.23277446 0.00000000)
		(-0.78000000 -0.23277446 0.00000000)
		(-0.76000000 -0.23277446 0.00000000)
		(-0.74000000 -0.23277446 0.00000000)
		(-0.72000000 -0.23277446 0.00000000)
		(-0.70000000 -0.23277446 0.00000000)
		(-0.68000000 -0.23277446 0.00000000)
		(-0.66000000 -0.23277446 0.00000000)
		(-0.64000000 -0.23277446 0.00000000)
		(-0.62000000 -0.23277446 0.00000000)
		(-0.60000000 -0.23277446 0.00000000)
		(-0.58000000 -0.23277446 0.00000000)
		(-0.56000000 -0.23277446 0.00000000)
		(-0.54000000 -0.23277446 0.00000000)
		(-0.52000000 -0.23277446 0.00000000)
		(-0.50000000 -0.23277446 0.00000000)
		(-0.48000000 -0.23277446 0.00000000)
		(-0.46000000 -0.23277446 0.00000000)
		(-0.44000000 -0.23277446 0.00000000)
		(-0.42000000 -0.23277446 0.00000000)
		(-0.40000000 -0.23277446 0.00000000)
		(-0.38000000 -0.23277446 0.00000000)
		(-0.36000000 -0.23277446 0.00000000)
		(-0.34000000 -0.23277446 0.00000000)
		(-0.32000000 -0.23277446 0.00000000)
		(-0.30000000 -0.23277446 0.00000000)
		(-0.28000000 -0.23277446 0.00000000)
		(-0.26000000 -0.23277446 0.00000000)
		(-0.24000000 -0.23277446 0.00000000)
		(-0.22000000 -0.23277446 0.00000000)
		(-0.20000000 -0.23277446 0.00000000)
		(-0.18000000 -0.23277446 0.00000000)
		(-0.16000000 -0.23277446 0.00000000)
		(-0.14000000 -0.23277446 0.00000000)
		(-0.12000000 -0.23277446 0.00000000)
		(-0.10000000 -0.23277446 0.00000000)
		(-0.08162011 -0.23240993 0.00000000)
		(-0.06324022 -0.23131634 0.00000000)
		(-0.04486034 -0.22949370 0.00000000)
		(-0.02648045 -0.22694200 0.00000000)
		(-0.00810056 -0.22366124 0.00000000)
		(0.01027933 -0.21965143 0.00000000)
		(0.02865922 -0.21491255 0.00000000)
		(0.04703911 -0.20944463 0.00000000)
		(0.06541899 -0.20324764 0.00000000)
		(0.08379888 -0.19632160 0.00000000)
		(0.10055866 -0.18687792 0.00000000)
		(0.11731844 -0.17678719 0.00000000)
		(0.13407821 -0.16608437 0.00000000)
		(0.15083799 -0.15480649 0.00000000)
		(0.16759777 -0.14299262 0.00000000)
		(0.18435754 -0.13068365 0.00000000)
		(0.20111732 -0.11792220 0.00000000)
		(0.21787709 -0.10475247 0.00000000)
		(0.23463687 -0.09122004 0.00000000)
		(0.25139665 -0.07737177 0.00000000)
		(0.26815642 -0.06325561 0.00000000)
		(0.28491620 -0.04892043 0.00000000)
		(0.30167598 -0.03441588 0.00000000)
		(0.31843575 -0.01979216 0.00000000)
		(0.33519553 -0.00509992 0.00000000)
		(0.35195531 0.00960999 0.00000000)
		(0.36871508 0.02428662 0.00000000)
		(0.38547486 0.03887915 0.00000000)
		(0.40223464 0.05333708 0.00000000)
		(0.41899441 0.06761033 0.00000000)
		(0.43575419 0.08164949 0.00000000)
		(0.45251397 0.09540595 0.00000000)
		(0.46927374 0.10883207 0.00000000)
		(0.48603352 0.12188138 0.00000000)
		(0.50279330 0.13450869 0.00000000)
		(0.51955307 0.14667027 0.00000000)
		(0.53631285 0.15832403 0.00000000)
		(0.55307263 0.16942961 0.00000000)
		(0.56983240 0.17994856 0.00000000)
		(0.58659218 0.18984446 0.00000000)
		(0.60335196 0.19908305 0.00000000)
		(0.62011173 0.20763233 0.00000000)
		(0.63687151 0.21546271 0.00000000)
		(0.65363128 0.22254708 0.00000000)
		(0.67039106 0.22886091 0.00000000)
		(0.68715084 0.23438233 0.00000000)
		(0.70391061 0.23909223 0.00000000)
		(0.72067039 0.24297430 0.00000000)
		(0.73743017 0.24601510 0.00000000)
		(0.75418994 0.24820410 0.00000000)
		(0.77094972 0.24953373 0.00000000)
		(0.78770950 0.24999938 0.00000000)
		(0.80446927 0.24959943 0.00000000)
		(0.82122905 0.24833527 0.00000000)
		(0.83798883 0.24621128 0.00000000)
		(0.85474860 0.24323482 0.00000000)
		(0.87150838 0.23941618 0.00000000)
		(0.88826816 0.23476859 0.00000000)
		(0.90502793 0.22930815 0.00000000)
		(0.92178771 0.22305375 0.00000000)
		(0.93854749 0.21602705 0.00000000)
		(0.95530726 0.20825239 0.00000000)
		(0.97206704 0.19975668 0.00000000)
		(0.98882682 0.19056933 0.00000000)
		(1.00558659 0.18072216 0.00000000)
		(1.02234637 0.17024926 0.00000000)
		(1.03910615 0.15918690 0.00000000)
		(1.05586592 0.14757336 0.00000000)
		(1.07262570 0.13544887 0.00000000)
		(1.08938547 0.12285541 0.00000000)
		(1.10614525 0.10983657 0.00000000)
		(1.12290503 0.09643744 0.00000000)
		(1.13966480 0.08270441 0.00000000)
		(1.15642458 0.06868502 0.00000000)
		(1.17318436 0.05442781 0.00000000)
		(1.18994413 0.03998216 0.00000000)
		(1.20670391 0.02539807 0.00000000)
		(1.22346369 0.01072605 0.00000000)
		(1.24022346 -0.00398311 0.00000000)
		(1.25698324 -0.01867849 0.00000000)
		(1.27374302 -0.03330919 0.00000000)
		(1.29050279 -0.04782456 0.00000000)
		(1.30726257 -0.06217434 0.00000000)
		(1.32402235 -0.07630885 0.00000000)
		(1.34078212 -0.09017915 0.00000000)
		(1.35754190 -0.10373722 0.00000000)
		(1.37430168 -0.11693611 0.00000000)
		(1.39106145 -0.12973012 0.00000000)
		(1.40782123 -0.14207496 0.00000000)
		(1.42458101 -0.15392788 0.00000000)
		(1.44134078 -0.16524784 0.00000000)
		(1.45810056 -0.17599565 0.00000000)
		(1.47486034 -0.18613410 0.00000000)
		(1.49162011 -0.19562807 0.00000000)
		(1.50837989 -0.20444472 0.00000000)
		(1.52513966 -0.21255349 0.00000000)
		(1.54189944 -0.21992632 0.00000000)
		(1.55865922 -0.22653769 0.00000000)
		(1.57541899 -0.23236469 0.00000000)
		(1.59217877 -0.23738716 0.00000000)
		(1.60893855 -0.24158771 0.00000000)
		(1.62569832 -0.24495178 0.00000000)
		(1.64245810 -0.24746774 0.00000000)
		(1.65921788 -0.24912687 0.00000000)
		(1.67597765 -0.24992343 0.00000000)
		(1.69273743 -0.24985466 0.00000000)
		(1.70949721 -0.24892080 0.00000000)
		(1.72625698 -0.24712508 0.00000000)
		(1.74301676 -0.24447371 0.00000000)
		(1.75977654 -0.24097589 0.00000000)
		(1.77653631 -0.23664371 0.00000000)
		(1.79329609 -0.23149219 0.00000000)
		(1.81005587 -0.22553915 0.00000000)
		(1.82681564 -0.21880520 0.00000000)
		(1.84357542 -0.21131367 0.00000000)
		(1.86033520 -0.20309049 0.00000000)
		(1.87709497 -0.19416414 0.00000000)
		(1.89385475 -0.18456551 0.00000000)
		(1.91061453 -0.17432785 0.00000000)
		(1.92737430 -0.16348660 0.00000000)
		(1.94413408 -0.15207929 0.00000000)
		(1.96089385 -0.14014543 0.00000000)
		(1.97765363 -0.12772634 0.00000000)
		(1.99441341 -0.11486500 0.00000000)
		(2.01117318 -0.10160596 0.00000000)
		(2.02793296 -0.08799512 0.00000000)
		(2.04469274 -0.07407961 0.00000000)
		(2.06145251 -0.05990760 0.00000000)
		(2.07821229 -0.04552817 0.00000000)
		(2.09497207 -0.03099111 0.00000000)
		(2.11173184 -0.01634674 0.00000000)
		(2.12849162 -0.00164578 0.00000000)
		(2.14525140 0.01306089 0.00000000)
		(2.16201117 0.02772233 0.00000000)
		(2.17877095 0.04228779 0.00000000)
		(2.19553073 0.05670683 0.00000000)
		(2.21229050 0.07092953 0.00000000)
		(2.22905028 0.08490664 0.00000000)
		(2.24581006 0.09858978 0.00000000)
		(2.26256983 0.11193156 0.00000000)
		(2.27932961 0.12488579 0.00000000)
		(2.29608939 0.13740761 0.00000000)
		(2.31284916 0.14945368 0.00000000)
		(2.32960894 0.16098229 0.00000000)
		(2.34636872 0.17195351 0.00000000)
		(2.36312849 0.18232937 0.00000000)
		(2.37988827 0.19207393 0.00000000)
		(2.39664804 0.20115345 0.00000000)
		(2.41340782 0.20953651 0.00000000)
		(2.43016760 0.21719407 0.00000000)
		(2.44692737 0.22409962 0.00000000)
		(2.46368715 0.23022926 0.00000000)
		(2.48044693 0.23556175 0.00000000)
		(2.49720670 0.24007864 0.00000000)
		(2.51396648 0.24376428 0.00000000)
		(2.53072626 0.24660592 0.00000000)
		(2.54748603 0.24859372 0.00000000)
		(2.56424581 0.24972079 0.00000000)
		(2.58100559 0.24998323 0.00000000)
		(2.59776536 0.24938013 0.00000000)
		(2.61452514 0.24791358 0.00000000)
		(2.63128492 0.24558867 0.00000000)
		(2.64804469 0.24241343 0.00000000)
		(2.66480447 0.23839886 0.00000000)
		(2.68156425 0.23355887 0.00000000)
		(2.69832402 0.22791020 0.00000000)
		(2.71508380 0.22147242 0.00000000)
		(2.73184358 0.21426783 0.00000000)
		(2.74860335 0.20632135 0.00000000)
		(2.76536313 0.19766051 0.00000000)
		(2.78212291 0.18831530 0.00000000)
		(2.79888268 0.17831806 0.00000000)
		(2.81564246 0.16770342 0.00000000)
		(2.83240223 0.15650813 0.00000000)
		(2.84916201 0.14477094 0.00000000)
		(2.86592179 0.13253251 0.00000000)
		(2.88268156 0.11983519 0.00000000)
		(2.89944134 0.10672297 0.00000000)
		(2.91620112 0.09324122 0.00000000)
		(2.93296089 0.07943664 0.00000000)
		(2.95166480 0.06851592 0.00000000)
		(2.97036872 0.05874474 0.00000000)
		(2.98907263 0.05012312 0.00000000)
		(3.00777654 0.04265105 0.00000000)
		(3.02648045 0.03632852 0.00000000)
		(3.04518436 0.03115555 0.00000000)
		(3.06388827 0.02713212 0.00000000)
		(3.08259218 0.02425825 0.00000000)
		(3.10129609 0.02253392 0.00000000)
		(3.12000000 0.02195915 0.00000000)
		(3.14000000 0.02195915 0.00000000)
		(3.16000000 0.02195915 0.00000000)
		(3.18000000 0.02195915 0.00000000)
		(3.20000000 0.02195915 0.00000000)
		(3.22000000 0.02195915 0.00000000)
		(3.24000000 0.02195915 0.00000000)
		(3.26000000 0.02195915 0.00000000)
		(3.28000000 0.02195915 0.00000000)
		(3.30000000 0.02195915 0.00000000)
		(3.32000000 0.02195915 0.00000000)
		(3.34000000 0.02195915 0.00000000)
		(3.36000000 0.02195915 0.00000000)
		(3.38000000 0.02195915 0.00000000)
		(3.40000000 0.02195915 0.00000000)
		(3.42000000 0.02195915 0.00000000)
		(3.44000000 0.02195915 0.00000000)
		(3.46000000 0.02195915 0.00000000)
		(3.48000000 0.02195915 0.00000000)
		(3.50000000 0.02195915 0.00000000)
		(3.52000000 0.02195915 0.00000000)
		(3.54000000 0.02195915 0.00000000)
		(3.56000000 0.02195915 0.00000000)
		(3.58000000 0.02195915 0.00000000)
		(3.60000000 0.02195915 0.00000000)
		(3.62000000 0.02195915 0.00000000)
		(3.64000000 0.02195915 0.00000000)
		(3.66000000 0.02195915 0.00000000)
		(3.68000000 0.02195915 0.00000000)
		(3.70000000 0.02195915 0.00000000)
		(3.72000000 0.02195915 0.00000000)
		(3.74000000 0.02195915 0.00000000)
		(3.76000000 0.02195915 0.00000000)
		(3.78000000 0.02195915 0.00000000)
		(3.80000000 0.02195915 0.00000000)
		(3.82000000 0.02195915 0.00000000)
		(3.84000000 0.02195915 0.00000000)
		(3.86000000 0.02195915 0.00000000)
		(3.88000000 0.02195915 0.00000000)
		(3.90000000 0.02195915 0.00000000)
		(3.92000000 0.02195915 0.00000000)
		(3.94000000 0.02195915 0.00000000)
		(3.96000000 0.02195915 0.00000000)
		(3.98000000 0.02195915 0.00000000)
		(4.00000000 0.02195915 0.00000000)
	)
	polyLine 4 5
	(
		(-1.00000000 -0.23277446 0.10000000)
		(-0.98000000 -0.23277446 0.10000000)
		(-0.96000000 -0.23277446 0.10000000)
		(-0.94000000 -0.23277446 0.10000000)
		(-0.92000000 -0.23277446 0.10000000)
		(-0.90000000 -0.23277446 0.10000000)
		(-0.88000000 -0.23277446 0.10000000)
		(-0.86000000 -0.23277446 0.10000000)
		(-0.84000000 -0.23277446 0.10000000)
		(-0.82000000 -0.23277446 0.10000000)
		(-0.80000000 -0.23277446 0.10000000)
		(-0.78000000 -0.23277446 0.10000000)
		(-0.76000000 -0.23277446 0.10000000)
		(-0.74000000 -0.23277446 0.10000000)
		(-0.72000000 -0.23277446 0.10000000)
		(-0.70000000 -0.23277446 0.10000000)
		(-0.68000000 -0.23277446 0.10000000)
		(-0.66000000 -0.23277446 0.10000000)
		(-0.64000000 -0.23277446 0.10000000)
		(-0.62000000 -0.23277446 0.10000000)
		(-0.60000000 -0.23277446 0.10000000)
		(-0.58000000 -0.23277446 0.10000000)
		(-0.56000000 -0.23277446 0.10000000)
		(-0.54000000 -0.23277446 0.10000000)
		(-0.52000000 -0.23277446 0.10000000)
		(-0.50000000 -0.23277446 0.10000000)
		(-0.48000000 -0.23277446 0.10000000)
		(-0.46000000 -0.23277446 0.10000000)
		(-0.44000000 -0.23277446 0.10000000)
		(-0.42000000 -0.23277446 0.10000000)
		(-0.40000000 -0.23277446 0.10000000)
		(-0.38000000 -0.23277446 0.10000000)
		(-0.36000000 -0.23277446 0.10000000)
		(-0.34000000 -0.23277446 0.10000000)
		(-0.32000000 -0.23277446 0.10000000)
		(-0.30000000 -0.23277446 0.10000000)
		(-0.28000000 -0.23277446 0.10000000)
		(-0.26000000 -0.23277446 0.10000000)
		(-0.24000000 -0.23277446 0.10000000)
		(-0.22000000 -0.23277446 0.10000000)
		(-0.20000000 -0.23277446 0.10000000)
		(-0.18000000 -0.23277446 0.10000000)
		(-0.16000000 -0.23277446 0.10000000)
		(-0.14000000 -0.23277446 0.10000000)
		(-0.12000000 -0.23277446 0.10000000)
		(-0.10000000 -0.23277446 0.10000000)
		(-0.08162011 -0.23240993 0.10000000)
		(-0.06324022 -0.23131634 0.10000000)
		(-0.04486034 -0.22949370 0.10000000)
		(-0.02648045 -0.22694200 0.10000000)
		(-0.00810056 -0.22366124 0.10000000)
		(0.01027933 -0.21965143 0.10000000)
		(0.02865922 -0.21491255 0.10000000)
		(0.04703911 -0.20944463 0.10000000)
		(0.06541899 -0.20324764 0.10000000)
		(0.08379888 -0.19632160 0.10000000)
		(0.10055866 -0.18687792 0.10000000)
		(0.11731844 -0.17678719 0.10000000)
		(0.13407821 -0.16608437 0.10000000)
		(0.15083799 -0.15480649 0.10000000)
		(0.16759777 -0.14299262 0.10000000)
		(0.18435754 -0.13068365 0.10000000)
		(0.20111732 -0.11792220 0.10000000)
		(0.21787709 -0.10475247 0.10000000)
		(0.23463687 -0.09122004 0.10000000)
		(0.25139665 -0.07737177 0.10000000)
		(0.26815642 -0.06325561 0.10000000)
		(0.28491620 -0.04892043 0.10000000)
		(0.30167598 -0.03441588 0.10000000)
		(0.31843575 -0.01979216 0.10000000)
		(0.33519553 -0.00509992 0.10000000)
		(0.35195531 0.00960999 0.10000000)
		(0.36871508 0.02428662 0.10000000)
		(0.38547486 0.03887915 0.10000000)
		(0.40223464 0.05333708 0.10000000)
		(0.41899441 0.06761033 0.10000000)
		(0.43575419 0.08164949 0.10000000)
		(0.45251397 0.09540595 0.10000000)
		(0.46927374 0.10883207 0.10000000)
		(0.48603352 0.12188138 0.10000000)
		(0.50279330 0.13450869 0.10000000)
		(0.51955307 0.14667027 0.10000000)
		(0.53631285 0.15832403 0.10000000)
		(0.55307263 0.16942961 0.10000000)
		(0.56983240 0.17994856 0.10000000)
		(0.58659218 0.18984446 0.10000000)
		(0.60335196 0.19908305 0.10000000)
		(0.62011173 0.20763233 0.10000000)
		(0.63687151 0.21546271 0.10000000)
		(0.65363128 0.22254708 0.10000000)
		(0.67039106 0.22886091 0.10000000)
		(0.68715084 0.23438233 0.10000000)
		(0.70391061 0.23909223 0.10000000)
		(0.72067039 0.24297430 0.10000000)
		(0.73743017 0.24601510 0.10000000)
		(0.75418994 0.24820410 0.10000000)
		(0.77094972 0.24953373 0.10000000)
		(0.78770950 0.24999938 0.10000000)
		(0.80446927 0.24959943 0.10000000)
		(0.82122905 0.24833527 0.10000000)
		(0.83798883 0.24621128 0.10000000)
		(0.85474860 0.24323482 0.10000000)
		(0.87150838 0.23941618 0.10000000)
		(0.88826816 0.23476859 0.10000000)
		(0.90502793 0.22930815 0.10000000)
		(0.92178771 0.22305375 0.10000000)
		(0.93854749 0.21602705 0.10000000)
		(0.95530726 0.20825239 0.10000000)
		(0.97206704 0.19975668 0.10000000)
		(0.98882682 0.19056933 0.10000000)
		(1.00558659 0.18072216 0.10000000)
		(1.02234637 0.17024926 0.10000000)
		(1.03910615 0.15918690 0.10000000)
		(1.05586592 0.14757336 0.10000000)
		(1.07262570 0.13544887 0.10000000)
		(1.08938547 0.12285541 0.10000000)
		(1.10614525 0.10983657 0.10000000)
		(1.12290503 0.09643744 0.10000000)
		(1.13966480 0.08270441 0.10000000)
		(1.15642458 0.06868502 0.10000000)
		(1.17318436 0.05442781 0.10000000)
		(1.18994413 0.03998216 0.10000000)
		(1.20670391 0.02539807 0.10000000)
		(1.22346369 0.01072605 0.10000000)
		(1.24022346 -0.00398311 0.10000000)
		(1.25698324 -0.01867849 0.10000000)
		(1.27374302 -0.03330919 0.10000000)
		(1.29050279 -0.04782456 0.10000000)
		(1.30726257 -0.06217434 0.10000000)
		(1.32402235 -0.07630885 0.10000000)
		(1.34078212 -0.09017915 0.10000000)
		(1.35754190 -0.10373722 0.10000000)
		(1.37430168 -0.11693611 0.10000000)
		(1.39106145 -0.12973012 0.10000000)
		(1.40782123 -0.14207496 0.10000000)
		(1.42458101 -0.15392788 0.10000000)
		(1.44134078 -0.16524784 0.10000000)
		(1.45810056 -0.17599565 0.10000000)
		(1.47486034 -0.18613410 0.10000000)
		(1.49162011 -0.19562807 0.10000000)
		(1.50837989 -0.20444472 0.10000000)
		(1.52513966 -0.21255349 0.10000000)
		(1.54189944 -0.21992632 0.10000000)
		(1.55865922 -0.22653769 0.10000000)
		(1.57541899 -0.23236469 0.10000000)
		(1.59217877 -0.23738716 0.10000000)
		(1.60893855 -0.24158771 0.10000000)
		(1.62569832 -0.24495178 0.10000000)
		(1.64245810 -0.24746774 0.10000000)
		(1.65921788 -0.24912687 0.10000000)
		(1.67597765 -0.24992343 0.10000000)
		(1.69273743 -0.24985466 0.10000000)
		(1.70949721 -0.24892080 0.10000000)
		(1.72625698 -0.24712508 0.10000000)
		(1.74301676 -0.24447371 0.10000000)
		(1.75977654 -0.24097589 0.10000000)
		(1.77653631 -0.23664371 0.10000000)
		(1.79329609 -0.23149219 0.10000000)
		(1.81005587 -0.22553915 0.10000000)
		(1.82681564 -0.21880520 0.10000000)
		(1.84357542 -0.21131367 0.10000000)
		(1.86033520 -0.20309049 0.10000000)
		(1.87709497 -0.19416414 0.10000000)
		(1.89385475 -0.18456551 0.10000000)
		(1.91061453 -0.17432785 0.10000000)
		(1.92737430 -0.16348660 0.10000000)
		(1.94413408 -0.15207929 0.10000000)
		(1.96089385 -0.14014543 0.10000000)
		(1.97765363 -0.12772634 0.10000000)
		(1.99441341 -0.11486500 0.10000000)
		(2.01117318 -0.10160596 0.10000000)
		(2.02793296 -0.08799512 0.10000000)
		(2.04469274 -0.07407961 0.10000000)
		(2.06145251 -0.05990760 0.10000000)
		(2.07821229 -0.04552817 0.10000000)
		(2.09497207 -0.03099111 0.10000000)
		(2.11173184 -0.01634674 0.10000000)
		(2.12849162 -0.00164578 0.10000000)
		(2.14525140 0.01306089 0.10000000)
		(2.16201117 0.02772233 0.10000000)
		(2.17877095 0.04228779 0.10000000)
		(2.19553073 0.05670683 0.10000000)
		(2.21229050 0.07092953 0.10000000)
		(2.22905028 0.08490664 0.10000000)
		(2.24581006 0.09858978 0.10000000)
		(2.26256983 0.11193156 0.10000000)
		(2.27932961 0.12488579 0.10000000)
		(2.29608939 0.13740761 0.10000000)
		(2.31284916 0.14945368 0.10000000)
		(2.32960894 0.16098229 0.10000000)
		(2.34636872 0.17195351 0.10000000)
		(2.36312849 0.18232937 0.10000000)
		(2.37988827 0.19207393 0.10000000)
		(2.39664804 0.20115345 0.10000000)
		(2.41340782 0.20953651 0.10000000)
		(2.43016760 0.21719407 0.10000000)
		(2.44692737 0.22409962 0.10000000)
		(2.46368715 0.23022926 0.10000000)
		(2.48044693 0.23556175 0.10000000)
		(2.49720670 0.24007864 0.10000000)
		(2.51396648 0.24376428 0.10000000)
		(2.53072626 0.24660592 0.10000000)
		(2.54748603 0.24859372 0.10000000)
		(2.56424581 0.24972079 0.10000000)
		(2.58100559 0.24998323 0.10000000)
		(2.59776536 0.24938013 0.10000000)
		(2.61452514 0.24791358 0.10000000)
		(2.63128492 0.24558867 0.10000000)
		(2.64804469 0.24241343 0.10000000)
		(2.66480447 0.23839886 0.10000000)
		(2.68156425 0.23355887 0.10000000)
		(2.69832402 0.22791020 0.10000000)
		(2.71508380 0.22147242 0.10000000)
		(2.73184358 0.21426783 0.10000000)
		(2.74860335 0.20632135 0.10000000)
		(2.76536313 0.19766051 0.10000000)
		(2.78212291 0.18831530 0.10000000)
		(2.79888268 0.17831806 0.10000000)
		(2.81564246 0.16770342 0.10000000)
		(2.83240223 0.15650813 0.10000000)
		(2.84916201 0.14477094 0.10000000)
		(2.86592179 0.13253251 0.10000000)
		(2.88268156 0.11983519 0.10000000)
		(2.89944134 0.10672297 0.10000000)
		(2.91620112 0.09324122 0.10000000)
		(2.93296089 0.07943664 0.10000000)
		(2.95166480 0.06851592 0.10000000)
		(2.97036872 0.05874474 0.10000000)
		(2.98907263 0.05012312 0.10000000)
		(3.00777654 0.04265105 0.10000000)
		(3.02648045 0.03632852 0.10000000)
		(3.04518436 0.03115555 0.10000000)
		(3.06388827 0.02713212 0.10000000)
		(3.08259218 0.02425825 0.10000000)
		(3.10129609 0.02253392 0.10000000)
		(3.12000000 0.02195915 0.10000000)
		(3.14000000 0.02195915 0.10000000)
		(3.16000000 0.02195915 0.10000000)
		(3.18000000 0.02195915 0.10000000)
		(3.20000000 0.02195915 0.10000000)
		(3.22000000 0.02195915 0.10000000)
		(3.24000000 0.02195915 0.10000000)
		(3.26000000 0.02195915 0.10000000)
		(3.28000000 0.02195915 0.10000000)
		(3.30000000 0.02195915 0.10000000)
		(3.32000000 0.02195915 0.10000000)
		(3.34000000 0.02195915 0.10000000)
		(3.36000000 0.02195915 0.10000000)
		(3.38000000 0.02195915 0.10000000)
		(3.40000000 0.02195915 0.10000000)
		(3.42000000 0.02195915 0.10000000)
		(3.44000000 0.02195915 0.10000000)
		(3.46000000 0.02195915 0.10000000)
		(3.48000000 0.02195915 0.10000000)
		(3.50000000 0.02195915 0.10000000)
		(3.52000000 0.02195915 0.10000000)
		(3.54000000 0.02195915 0.10000000)
		(3.56000000 0.02195915 0.10000000)
		(3.58000000 0.02195915 0.10000000)
		(3.60000000 0.02195915 0.10000000)
		(3.62000000 0.02195915 0.10000000)
		(3.64000000 0.02195915 0.10000000)
		(3.66000000 0.02195915 0.10000000)
		(3.68000000 0.02195915 0.10000000)
		(3.70000000 0.02195915 0.10000000)
		(3.72000000 0.02195915 0.10000000)
		(3.74000000 0.02195915 0.10000000)
		(3.76000000 0.02195915 0.10000000)
		(3.78000000 0.02195915 0.10000000)
		(3.80000000 0.02195915 0.10000000)
		(3.82000000 0.02195915 0.10000000)
		(3.84000000 0.02195915 0.10000000)
		(3.86000000 0.02195915 0.10000000)
		(3.88000000 0.02195915 0.10000000)
		(3.90000000 0.02195915 0.10000000)
		(3.92000000 0.02195915 0.10000000)
		(3.94000000 0.02195915 0.10000000)
		(3.96000000 0.02195915 0.10000000)
		(3.98000000 0.02195915 0.10000000)
		(4.00000000 0.02195915 0.10000000)
	)
	polyLine 3 2
	(
		(-1.00000000 0.26722554 0.00000000)
		(-0.98000000 0.26865580 0.00000000)
		(-0.96000000 0.27008605 0.00000000)
		(-0.94000000 0.27151630 0.00000000)
		(-0.92000000 0.27294655 0.00000000)
		(-0.90000000 0.27437681 0.00000000)
		(-0.88000000 0.27580706 0.00000000)
		(-0.86000000 0.27723731 0.00000000)
		(-0.84000000 0.27866757 0.00000000)
		(-0.82000000 0.28009782 0.00000000)
		(-0.80000000 0.28152807 0.00000000)
		(-0.78000000 0.28295832 0.00000000)
		(-0.76000000 0.28438858 0.00000000)
		(-0.74000000 0.28581883 0.00000000)
		(-0.72000000 0.28724908 0.00000000)
		(-0.70000000 0.28867933 0.00000000)
		(-0.68000000 0.29010959 0.00000000)
		(-0.66000000 0.29153984 0.00000000)
		(-0.64000000 0.29297009 0.00000000)
		(-0.62000000 0.29440035 0.00000000)
		(-0.60000000 0.29583060 0.00000000)
		(-0.58000000 0.29726085 0.00000000)
		(-0.56000000 0.29869110 0.00000000)
		(-0.54000000 0.30012136 0.00000000)
		(-0.52000000 0.30155161 0.00000000)
		(-0.50000000 0.30298186 0.00000000)
		(-0.48000000 0.30441212 0.00000000)
		(-0.46000000 0.30584237 0.00000000)
		(-0.44000000 0.30727262 0.00000000)
		(-0.42000000 0.30870287 0.00000000)
		(-0.40000000 0.31013313 0.00000000)
		(-0.38000000 0.31156338 0.00000000)
		(-0.36000000 0.31299363 0.00000000)
		(-0.34000000 0.31442389 0.00000000)
		(-0.32000000 0.31585414 0.00000000)
		(-0.30000000 0.31728439 0.00000000)
		(-0.28000000 0.31871464 0.00000000)
		(-0.26000000 0.32014490 0.00000000)
		(-0.24000000 0.32157515 0.00000000)
		(-0.22000000 0.32300540 0.00000000)
		(-0.20000000 0.32443566 0.00000000)
		(-0.18000000 0.32586591 0.00000000)
		(-0.16000000 0.32729616 0.00000000)
		(-0.14000000 0.32872641 0.00000000)
		(-0.12000000 0.33015667 0.00000000)
		(-0.10000000 0.33158692 0.00000000)
		(-0.08162011 0.33241588 0.00000000)
		(-0.06324022 0.33375394 0.00000000)
		(-0.04486034 0.33560109 0.00000000)
		(-0.02648045 0.33795733 0.00000000)
		(-0.00810056 0.34082267 0.00000000)
		(0.01027933 0.34419710 0.00000000)
		(0.02865922 0.34808063 0.00000000)
		(0.04703911 0.35247325 0.00000000)
		(0.06541899 0.35737497 0.00000000)
		(0.08379888 0.36278578 0.00000000)
		(0.10055866 0.36938621 0.00000000)
		(0.11731844 0.37643887 0.00000000)
		(0.13407821 0.38391936 0.00000000)
		(0.15083799 0.39180175 0.00000000)
		(0.16759777 0.40005877 0.00000000)
		(0.18435754 0.40866183 0.00000000)
		(0.20111732 0.41758113 0.00000000)
		(0.21787709 0.42678580 0.00000000)
		(0.23463687 0.43624397 0.00000000)
		(0.25139665 0.44592288 0.00000000)
		(0.26815642 0.45578903 0.00000000)
		(0.28491620 0.46580825 0.00000000)
		(0.30167598 0.47594586 0.00000000)
		(0.31843575 0.48616675 0.00000000)
		(0.33519553 0.49643554 0.00000000)
		(0.35195531 0.50671667 0.00000000)
		(0.36871508 0.51697454 0.00000000)
		(0.38547486 0.52717364 0.00000000)
		(0.40223464 0.53727866 0.00000000)
		(0.41899441 0.54725460 0.00000000)
		(0.43575419 0.55706693 0.00000000)
		(0.45251397 0.56668168 0.00000000)
		(0.46927374 0.57606554 0.00000000)
		(0.48603352 0.58518604 0.00000000)
		(0.50279330 0.59401159 0.00000000)
		(0.51955307 0.60251164 0.00000000)
		(0.53631285 0.61065675 0.00000000)
		(0.55307263 0.61841872 0.00000000)
		(0.56983240 0.62577069 0.00000000)
		(0.58659218 0.63268719 0.00000000)
		(0.60335196 0.63914427 0.00000000)
		(0.62011173 0.64511959 0.00000000)
		(0.63687151 0.65059245 0.00000000)
		(0.65363128 0.65554389 0.00000000)
		(0.67039106 0.65995679 0.00000000)
		(0.68715084 0.66381585 0.00000000)
		(0.70391061 0.66710772 0.00000000)
		(0.72067039 0.66982100 0.00000000)
		(0.73743017 0.67194630 0.00000000)
		(0.75418994 0.67347625 0.00000000)
		(0.77094972 0.67440556 0.00000000)
		(0.78770950 0.67473101 0.00000000)
		(0.80446927 0.67445147 0.00000000)
		(0.82122905 0.67356792 0.00000000)
		(0.83798883 0.67208341 0.00000000)
		(0.85474860 0.67000308 0.00000000)
		(0.87150838 0.66733414 0.00000000)
		(0.88826816 0.66408582 0.00000000)
		(0.90502793 0.66026938 0.00000000)
		(0.92178771 0.65589802 0.00000000)
		(0.93854749 0.65098688 0.00000000)
		(0.95530726 0.64555296 0.00000000)
		(0.97206704 0.63961509 0.00000000)
		(0.98882682 0.63319382 0.00000000)
		(1.00558659 0.62631138 0.00000000)
		(1.02234637 0.61899160 0.00000000)
		(1.03910615 0.61125982 0.00000000)
		(1.05586592 0.60314283 0.00000000)
		(1.07262570 0.59466871 0.00000000)
		(1.08938547 0.58586681 0.00000000)
		(1.10614525 0.57676761 0.00000000)
		(1.12290503 0.56740261 0.00000000)
		(1.13966480 0.55780424 0.00000000)
		(1.15642458 0.54800573 0.00000000)
		(1.17318436 0.53804100 0.00000000)
		(1.18994413 0.52794456 0.00000000)
		(1.20670391 0.51775137 0.00000000)
		(1.22346369 0.50749671 0.00000000)
		(1.24022346 0.49721610 0.00000000)
		(1.25698324 0.48694512 0.00000000)
		(1.27374302 0.47671935 0.00000000)
		(1.29050279 0.46657419 0.00000000)
		(1.30726257 0.45654475 0.00000000)
		(1.32402235 0.44666578 0.00000000)
		(1.34078212 0.43697147 0.00000000)
		(1.35754190 0.42749538 0.00000000)
		(1.37430168 0.41827034 0.00000000)
		(1.39106145 0.40932827 0.00000000)
		(1.40782123 0.40070015 0.00000000)
		(1.42458101 0.39241584 0.00000000)
		(1.44134078 0.38450403 0.00000000)
		(1.45810056 0.37699210 0.00000000)
		(1.47486034 0.36990608 0.00000000)
		(1.49162011 0.36327050 0.00000000)
		(1.50837989 0.35710832 0.00000000)
		(1.52513966 0.35144089 0.00000000)
		(1.54189944 0.34628782 0.00000000)
		(1.55865922 0.34166697 0.00000000)
		(1.57541899 0.33759433 0.00000000)
		(1.59217877 0.33408399 0.00000000)
		(1.60893855 0.33114812 0.00000000)
		(1.62569832 0.32879689 0.00000000)
		(1.64245810 0.32703842 0.00000000)
		(1.65921788 0.32587881 0.00000000)
		(1.67597765 0.32532207 0.00000000)
		(1.69273743 0.32537014 0.00000000)
		(1.70949721 0.32602284 0.00000000)
		(1.72625698 0.32727791 0.00000000)
		(1.74301676 0.32913102 0.00000000)
		(1.75977654 0.33157574 0.00000000)
		(1.77653631 0.33460361 0.00000000)
		(1.79329609 0.33820414 0.00000000)
		(1.81005587 0.34236488 0.00000000)
		(1.82681564 0.34707140 0.00000000)
		(1.84357542 0.35230743 0.00000000)
		(1.86033520 0.35805482 0.00000000)
		(1.87709497 0.36429368 0.00000000)
		(1.89385475 0.37100241 0.00000000)
		(1.91061453 0.37815777 0.00000000)
		(1.92737430 0.38573500 0.00000000)
		(1.94413408 0.39370786 0.00000000)
		(1.96089385 0.40204874 0.00000000)
		(1.97765363 0.41072877 0.00000000)
		(1.99441341 0.41971789 0.00000000)
		(2.01117318 0.42898498 0.00000000)
		(2.02793296 0.43849794 0.00000000)
		(2.04469274 0.44822385 0.00000000)
		(2.06145251 0.45812903 0.00000000)
		(2.07821229 0.46817919 0.00000000)
		(2.09497207 0.47833952 0.00000000)
		(2.11173184 0.48857484 0.00000000)
		(2.12849162 0.49884972 0.00000000)
		(2.14525140 0.50912859 0.00000000)
		(2.16201117 0.51937585 0.00000000)
		(2.17877095 0.52955602 0.00000000)
		(2.19553073 0.53963386 0.00000000)
		(2.21229050 0.54957447 0.00000000)
		(2.22905028 0.55934344 0.00000000)
		(2.24581006 0.56890694 0.00000000)
		(2.26256983 0.57823185 0.00000000)
		(2.27932961 0.58728590 0.00000000)
		(2.29608939 0.59603772 0.00000000)
		(2.31284916 0.60445703 0.00000000)
		(2.32960894 0.61251467 0.00000000)
		(2.34636872 0.62018274 0.00000000)
		(2.36312849 0.62743469 0.00000000)
		(2.37988827 0.63424542 0.00000000)
		(2.39664804 0.64059133 0.00000000)
		(2.41340782 0.64645047 0.00000000)
		(2.43016760 0.65180253 0.00000000)
		(2.44692737 0.65662900 0.00000000)
		(2.46368715 0.66091316 0.00000000)
		(2.48044693 0.66464018 0.00000000)
		(2.49720670 0.66779715 0.00000000)
		(2.51396648 0.67037314 0.00000000)
		(2.53072626 0.67235924 0.00000000)