/*--------------------------------*- C++ -*----------------------------------*\\
/*--------------------------------*- C++ -*----------------------------------*\\
| =========                 |                                                 |
| \\\\      /  F ield         | OpenFOAM: The Open Source CFD Toolbox           |
|  \\\\    /   O peration     | Version:  v2012                                 |
|   \\\\  /    A nd           | Website:  www.openfoam.com                      |
|    \\\\/     M anipulation  |                                                 |
\\*---------------------------------------------------------------------------*/
FoamFile
{
    version     2.0;
    format      ascii;
    class       dictionary;
    object      blockMeshDict;
}
// * * * * * * * * * * * * * * * * * * * * * * * * * * * * * * * * * * * * * //

scale   0.01;

xmin -1;
xmax 5;
ymin 0;
ymax 0.5;
zmin 0;
zmax 0.1;

vertices
(
    (-1.00000000 0.08749463 0.00000000)
    (4.00000000 0.18503303 0.00000000)
    (4.00000000 0.68503303 0.00000000)
    (-1.00000000 0.58749463 0.00000000)
    (-1.00000000 0.08749463 0.10000000)
    (4.00000000 0.18503303 0.10000000)
    (4.00000000 0.68503303 0.10000000)
    (-1.00000000 0.58749463 0.10000000)
);

blocks
(
    hex (0 1 2 3 4 5 6 7) (200 20 1) simpleGrading (1 1 1)
);

edges
(
	polyLine 0 1
	(
		(-1.00000000 0.08749463 0.00000000)
		(-0.98000000 0.08749463 0.00000000)
		(-0.96000000 0.08749463 0.00000000)
		(-0.94000000 0.08749463 0.00000000)
		(-0.92000000 0.08749463 0.00000000)
		(-0.90000000 0.08749463 0.00000000)
		(-0.88000000 0.08749463 0.00000000)
		(-0.86000000 0.08749463 0.00000000)
		(-0.84000000 0.08749463 0.00000000)
		(-0.82000000 0.08749463 0.00000000)
		(-0.80000000 0.08749463 0.00000000)
		(-0.78000000 0.08749463 0.00000000)
		(-0.76000000 0.08749463 0.00000000)
		(-0.74000000 0.08749463 0.00000000)
		(-0.72000000 0.08749463 0.00000000)
		(-0.70000000 0.08749463 0.00000000)
		(-0.68000000 0.08749463 0.00000000)
		(-0.66000000 0.08749463 0.00000000)
		(-0.64000000 0.08749463 0.00000000)
		(-0.62000000 0.08749463 0.00000000)
		(-0.60000000 0.08749463 0.00000000)
		(-0.58000000 0.08749463 0.00000000)
		(-0.56000000 0.08749463 0.00000000)
		(-0.54000000 0.08749463 0.00000000)
		(-0.52000000 0.08749463 0.00000000)
		(-0.50000000 0.08749463 0.00000000)
		(-0.48000000 0.08749463 0.00000000)
		(-0.46000000 0.08749463 0.00000000)
		(-0.44000000 0.08749463 0.00000000)
		(-0.42000000 0.08749463 0.00000000)
		(-0.40000000 0.08749463 0.00000000)
		(-0.38000000 0.08749463 0.00000000)
		(-0.36000000 0.08749463 0.00000000)
		(-0.34000000 0.08749463 0.00000000)
		(-0.32000000 0.08749463 0.00000000)
		(-0.30000000 0.08749463 0.00000000)
		(-0.28000000 0.08749463 0.00000000)
		(-0.26000000 0.08749463 0.00000000)
		(-0.24000000 0.08749463 0.00000000)
		(-0.22000000 0.08749463 0.00000000)
		(-0.20000000 0.08749463 0.00000000)
		(-0.18000000 0.08749463 0.00000000)
		(-0.16000000 0.08749463 0.00000000)
		(-0.14000000 0.08749463 0.00000000)
		(-0.12000000 0.08749463 0.00000000)
		(-0.10000000 0.08749463 0.00000000)
		(-0.08162011 0.08666923 0.00000000)
		(-0.06324022 0.08419304 0.00000000)
		(-0.04486034 0.08006604 0.00000000)
		(-0.02648045 0.07428826 0.00000000)
		(-0.00810056 0.06685967 0.00000000)
		(0.01027933 0.05778029 0.00000000)
		(0.02865922 0.04705011 0.00000000)
		(0.04703911 0.03466913 0.00000000)
		(0.06541899 0.02063736 0.00000000)
		(0.08379888 0.00495479 0.00000000)
		(0.10055866 -0.01192674 0.00000000)
		(0.11731844 -0.02875388 0.00000000)
		(0.13407821 -0.04544988 0.00000000)
		(0.15083799 -0.06193860 0.00000000)
		(0.16759777 -0.07814484 0.00000000)
		(0.18435754 -0.09399468 0.00000000)
		(0.20111732 -0.10941585 0.00000000)
		(0.21787709 -0.12433801 0.00000000)
		(0.23463687 -0.13869311 0.00000000)
		(0.25139665 -0.15241567 0.00000000)
		(0.26815642 -0.16544311 0.00000000)
		(0.28491620 -0.17771603 0.00000000)
		(0.30167598 -0.18917844 0.00000000)
		(0.31843575 -0.19977807 0.00000000)
		(0.33519553 -0.20946658 0.00000000)
		(0.35195531 -0.21819978 0.00000000)
		(0.36871508 -0.22593785 0.00000000)
		(0.38547486 -0.23264549 0.00000000)
		(0.40223464 -0.23829211 0.00000000)
		(0.41899441 -0.24285196 0.00000000)
		(0.43575419 -0.24630424 0.00000000)
		(0.45251397 -0.24863321 0.00000000)
		(0.46927374 -0.24982825 0.00000000)
		(0.48603352 -0.24988391 0.00000000)
		(0.50279330 -0.24879993 0.00000000)
		(0.51955307 -0.24658125 0.00000000)
		(0.53631285 -0.24323801 0.00000000)
		(0.55307263 -0.23878543 0.00000000)
		(0.56983240 -0.23324383 0.00000000)
		(0.58659218 -0.22663849 0.00000000)
		(0.60335196 -0.21899952 0.00000000)
		(0.62011173 -0.21036177 0.00000000)
		(0.63687151 -0.20076463 0.00000000)
		(0.65363128 -0.19025187 0.00000000)
		(0.67039106 -0.17887144 0.00000000)
		(0.68715084 -0.16667523 0.00000000)
		(0.70391061 -0.15371887 0.00000000)
		(0.72067039 -0.14006145 0.00000000)
		(0.73743017 -0.12576526 0.00000000)
		(0.75418994 -0.11089550 0.00000000)
		(0.77094972 -0.09551997 0.00000000)
		(0.78770950 -0.07970882 0.00000000)
		(0.80446927 -0.06353413 0.00000000)
		(0.82122905 -0.04706969 0.00000000)
		(0.83798883 -0.03039058 0.00000000)
		(0.85474860 -0.01357287 0.00000000)
		(0.87150838 0.00330674 0.00000000)
		(0.88826816 0.02017127 0.00000000)
		(0.90502793 0.03694381 0.00000000)
		(0.92178771 0.05354786 0.00000000)
		(0.93854749 0.06990769 0.00000000)
		(0.95530726 0.08594870 0.00000000)
		(0.97206704 0.10159773 0.00000000)
		(0.98882682 0.11678340 0.00000000)
		(1.00558659 0.13143646 0.00000000)
		(1.02234637 0.14549009 0.00000000)
		(1.03910615 0.15888018 0.00000000)
		(1.05586592 0.17154567 0.00000000)
		(1.07262570 0.18342880 0.00000000)
		(1.08938547 0.19447538 0.00000000)
		(1.10614525 0.20463501 0.00000000)
		(1.12290503 0.21386138 0.00000000)
		(1.13966480 0.22211239 0.00000000)
		(1.15642458 0.22935043 0.00000000)
		(1.17318436 0.23554247 0.00000000)
		(1.18994413 0.24066028 0.00000000)
		(1.20670391 0.24468052 0.00000000)
		(1.22346369 0.24758486 0.00000000)
		(1.24022346 0.24936004 0.00000000)
		(1.25698324 0.24999798 0.00000000)
		(1.27374302 0.24949576 0.00000000)
		(1.29050279 0.24785567 0.00000000)
		(1.30726257 0.24508519 0.00000000)
		(1.32402235 0.24119697 0.00000000)
		(1.34078212 0.23620872 0.00000000)
		(1.35754190 0.23014321 0.00000000)
		(1.37430168 0.22302809 0.00000000)
		(1.39106145 0.21489581 0.00000000)
		(1.40782123 0.20578346 0.00000000)
		(1.42458101 0.19573261 0.00000000)
		(1.44134078 0.18478908 0.00000000)
		(1.45810056 0.17300280 0.00000000)
		(1.47486034 0.16042750 0.00000000)
		(1.49162011 0.14712055 0.00000000)
		(1.50837989 0.13314263 0.00000000)
		(1.52513966 0.11855749 0.00000000)
		(1.54189944 0.10343165 0.00000000)
		(1.55865922 0.08783410 0.00000000)
		(1.57541899 0.07183596 0.00000000)
		(1.59217877 0.05551020 0.00000000)
		(1.60893855 0.03893128 0.00000000)
		(1.62569832 0.02217480 0.00000000)
		(1.64245810 0.00531720 0.00000000)
		(1.65921788 -0.01156466 0.00000000)
		(1.67597765 -0.02839377 0.00000000)
		(1.69273743 -0.04509339 0.00000000)
		(1.70949721 -0.06158735 0.00000000)
		(1.72625698 -0.07780044 0.00000000)
		(1.74301676 -0.09365870 0.00000000)
		(1.75977654 -0.10908982 0.00000000)
		(1.77653631 -0.12402341 0.00000000)
		(1.79329609 -0.13839137 0.00000000)
		(1.81005587 -0.15212818 0.00000000)
		(1.82681564 -0.16517118 0.00000000)
		(1.84357542 -0.17746089 0.00000000)
		(1.86033520 -0.18894127 0.00000000)
		(1.87709497 -0.19955994 0.00000000)
		(1.89385475 -0.20926849 0.00000000)
		(1.91061453 -0.21802263 0.00000000)
		(1.92737430 -0.22578244 0.00000000)
		(1.94413408 -0.23251254 0.00000000)
		(1.96089385 -0.23818223 0.00000000)
		(1.97765363 -0.24276564 0.00000000)
		(1.99441341 -0.24624188 0.00000000)
		(2.01117318 -0.24859510 0.00000000)
		(2.02793296 -0.24981456 0.00000000)
		(2.04469274 -0.24989469 0.00000000)
		(2.06145251 -0.24883514 0.00000000)
		(2.07821229 -0.24664074 0.00000000)
		(2.09497207 -0.24332149 0.00000000)
		(2.11173184 -0.23889253 0.00000000)
		(2.12849162 -0.23337406 0.00000000)
		(2.14525140 -0.22679125 0.00000000)
		(2.16201117 -0.21917412 0.00000000)
		(2.17877095 -0.21055742 0.00000000)
		(2.19553073 -0.20098043 0.00000000)
		(2.21229050 -0.19048683 0.00000000)
		(2.22905028 -0.17912449 0.00000000)
		(2.24581006 -0.16694522 0.00000000)
		(2.26256983 -0.15400457 0.00000000)
		(2.27932961 -0.14036156 0.00000000)
		(2.29608939 -0.12607841 0.00000000)
		(2.31284916 -0.11122025 0.00000000)
		(2.32960894 -0.09585485 0.00000000)
		(2.34636872 -0.08005230 0.00000000)
		(2.36312849 -0.06388465 0.00000000)
		(2.37988827 -0.04742564 0.00000000)
		(2.39664804 -0.03075035 0.00000000)
		(2.41340782 -0.01393481 0.00000000)
		(2.43016760 0.00294428 0.00000000)
		(2.44692737 0.01980995 0.00000000)
		(2.46368715 0.03658527 0.00000000)
		(2.48044693 0.05319373 0.00000000)
		(2.49720670 0.06955959 0.00000000)
		(2.51396648 0.08560822 0.00000000)
		(2.53072626 0.10126642 0.00000000)
		(2.54748603 0.11646277 0.00000000)
		(2.56424581 0.13112798 0.00000000)
		(2.58100559 0.14519516 0.00000000)
		(2.59776536 0.15860014 0.00000000)
		(2.61452514 0.17128181 0.00000000)
		(2.63128492 0.18318232 0.00000000)
		(2.64804469 0.19424739 0.00000000)
		(2.66480447 0.20442657 0.00000000)
		(2.68156425 0.21367343 0.00000000)
		(2.69832402 0.22194579 0.00000000)
		(2.71508380 0.22920593 0.00000000)
		(2.73184358 0.23542074 0.00000000)
		(2.74860335 0.24056188 0.00000000)
		(2.76536313 0.24460589 0.00000000)
		(2.78212291 0.24753434 0.00000000)
		(2.79888268 0.24933386 0.00000000)
		(2.81564246 0.24999626 0.00000000)
		(2.83240223 0.24951851 0.00000000)
		(2.84916201 0.24790278 0.00000000)
		(2.86592179 0.24515646 0.00000000)
		(2.88268156 0.24129206 0.00000000)
		(2.89944134 0.23632720 0.00000000)
		(2.91620112 0.23028454 0.00000000)
		(2.93296089 0.22319163 0.00000000)
		(2.95166480 0.21594149 0.00000000)
		(2.97036872 0.20945453 0.00000000)
		(2.98907263 0.20373074 0.00000000)
		(3.00777654 0.19877013 0.00000000)
		(3.02648045 0.19457268 0.00000000)
		(3.04518436 0.19113841 0.00000000)
		(3.06388827 0.18846731 0.00000000)
		(3.08259218 0.18655938 0.00000000)
		(3.10129609 0.18541462 0.00000000)
		(3.12000000 0.18503303 0.00000000)
		(3.14000000 0.18503303 0.00000000)
		(3.16000000 0.18503303 0.00000000)
		(3.18000000 0.18503303 0.00000000)
		(3.20000000 0.18503303 0.00000000)
		(3.22000000 0.18503303 0.00000000)
		(3.24000000 0.18503303 0.00000000)
		(3.26000000 0.18503303 0.00000000)
		(3.28000000 0.18503303 0.00000000)
		(3.30000000 0.18503303 0.00000000)
		(3.32000000 0.18503303 0.00000000)
		(3.34000000 0.18503303 0.00000000)
		(3.36000000 0.18503303 0.00000000)
		(3.38000000 0.18503303 0.00000000)
		(3.40000000 0.18503303 0.00000000)
		(3.42000000 0.18503303 0.00000000)
		(3.44000000 0.18503303 0.00000000)
		(3.46000000 0.18503303 0.00000000)
		(3.48000000 0.18503303 0.00000000)
		(3.50000000 0.18503303 0.00000000)
		(3.52000000 0.18503303 0.00000000)
		(3.54000000 0.18503303 0.00000000)
		(3.56000000 0.18503303 0.00000000)
		(3.58000000 0.18503303 0.00000000)
		(3.60000000 0.18503303 0.00000000)
		(3.62000000 0.18503303 0.00000000)
		(3.64000000 0.18503303 0.00000000)
		(3.66000000 0.18503303 0.00000000)
		(3.68000000 0.18503303 0.00000000)
		(3.70000000 0.18503303 0.00000000)
		(3.72000000 0.18503303 0.00000000)
		(3.74000000 0.18503303 0.00000000)
		(3.76000000 0.18503303 0.00000000)
		(3.78000000 0.18503303 0.00000000)
		(3.80000000 0.18503303 0.00000000)
		(3.82000000 0.18503303 0.00000000)
		(3.84000000 0.18503303 0.00000000)
		(3.86000000 0.18503303 0.00000000)
		(3.88000000 0.18503303 0.00000000)
		(3.90000000 0.18503303 0.00000000)
		(3.92000000 0.18503303 0.00000000)
		(3.94000000 0.18503303 0.00000000)
		(3.96000000 0.18503303 0.00000000)
		(3.98000000 0.18503303 0.00000000)
		(4.00000000 0.18503303 0.00000000)
	)
	polyLine 4 5
	(
		(-1.00000000 0.08749463 0.10000000)
		(-0.98000000 0.08749463 0.10000000)
		(-0.96000000 0.08749463 0.10000000)
		(-0.94000000 0.08749463 0.10000000)
		(-0.92000000 0.08749463 0.10000000)
		(-0.90000000 0.08749463 0.10000000)
		(-0.88000000 0.08749463 0.10000000)
		(-0.86000000 0.08749463 0.10000000)
		(-0.84000000 0.08749463 0.10000000)
		(-0.82000000 0.08749463 0.10000000)
		(-0.80000000 0.08749463 0.10000000)
		(-0.78000000 0.08749463 0.10000000)
		(-0.76000000 0.08749463 0.10000000)
		(-0.74000000 0.08749463 0.10000000)
		(-0.72000000 0.08749463 0.10000000)
		(-0.70000000 0.08749463 0.10000000)
		(-0.68000000 0.08749463 0.10000000)
		(-0.66000000 0.08749463 0.10000000)
		(-0.64000000 0.08749463 0.10000000)
		(-0.62000000 0.08749463 0.10000000)
		(-0.60000000 0.08749463 0.10000000)
		(-0.58000000 0.08749463 0.10000000)
		(-0.56000000 0.08749463 0.10000000)
		(-0.54000000 0.08749463 0.10000000)
		(-0.52000000 0.08749463 0.10000000)
		(-0.50000000 0.08749463 0.10000000)
		(-0.48000000 0.08749463 0.10000000)
		(-0.46000000 0.08749463 0.10000000)
		(-0.44000000 0.08749463 0.10000000)
		(-0.42000000 0.08749463 0.10000000)
		(-0.40000000 0.08749463 0.10000000)
		(-0.38000000 0.08749463 0.10000000)
		(-0.36000000 0.08749463 0.10000000)
		(-0.34000000 0.08749463 0.10000000)
		(-0.32000000 0.08749463 0.10000000)
		(-0.30000000 0.08749463 0.10000000)
		(-0.28000000 0.08749463 0.10000000)
		(-0.26000000 0.08749463 0.10000000)
		(-0.24000000 0.08749463 0.10000000)
		(-0.22000000 0.08749463 0.10000000)
		(-0.20000000 0.08749463 0.10000000)
		(-0.18000000 0.08749463 0.10000000)
		(-0.16000000 0.08749463 0.10000000)
		(-0.14000000 0.08749463 0.10000000)
		(-0.12000000 0.08749463 0.10000000)
		(-0.10000000 0.08749463 0.10000000)
		(-0.08162011 0.08666923 0.10000000)
		(-0.06324022 0.08419304 0.10000000)
		(-0.04486034 0.08006604 0.10000000)
		(-0.02648045 0.07428826 0.10000000)
		(-0.00810056 0.06685967 0.10000000)
		(0.01027933 0.05778029 0.10000000)
		(0.02865922 0.04705011 0.10000000)
		(0.04703911 0.03466913 0.10000000)
		(0.06541899 0.02063736 0.10000000)
		(0.08379888 0.00495479 0.10000000)
		(0.10055866 -0.01192674 0.10000000)
		(0.11731844 -0.02875388 0.10000000)
		(0.13407821 -0.04544988 0.10000000)
		(0.15083799 -0.06193860 0.10000000)
		(0.16759777 -0.07814484 0.10000000)
		(0.18435754 -0.09399468 0.10000000)
		(0.20111732 -0.10941585 0.10000000)
		(0.21787709 -0.12433801 0.10000000)
		(0.23463687 -0.13869311 0.10000000)
		(0.25139665 -0.15241567 0.10000000)
		(0.26815642 -0.16544311 0.10000000)
		(0.28491620 -0.17771603 0.10000000)
		(0.30167598 -0.18917844 0.10000000)
		(0.31843575 -0.19977807 0.10000000)
		(0.33519553 -0.20946658 0.10000000)
		(0.35195531 -0.21819978 0.10000000)
		(0.36871508 -0.22593785 0.10000000)
		(0.38547486 -0.23264549 0.10000000)
		(0.40223464 -0.23829211 0.10000000)
		(0.41899441 -0.24285196 0.10000000)
		(0.43575419 -0.24630424 0.10000000)
		(0.45251397 -0.24863321 0.10000000)
		(0.46927374 -0.24982825 0.10000000)
		(0.48603352 -0.24988391 0.10000000)
		(0.50279330 -0.24879993 0.10000000)
		(0.51955307 -0.24658125 0.10000000)
		(0.53631285 -0.24323801 0.10000000)
		(0.55307263 -0.23878543 0.10000000)
		(0.56983240 -0.23324383 0.10000000)
		(0.58659218 -0.22663849 0.10000000)
		(0.60335196 -0.21899952 0.10000000)
		(0.62011173 -0.21036177 0.10000000)
		(0.63687151 -0.20076463 0.10000000)
		(0.65363128 -0.19025187 0.10000000)
		(0.67039106 -0.17887144 0.10000000)
		(0.68715084 -0.16667523 0.10000000)
		(0.70391061 -0.15371887 0.10000000)
		(0.72067039 -0.14006145 0.10000000)
		(0.73743017 -0.12576526 0.10000000)
		(0.75418994 -0.11089550 0.10000000)
		(0.77094972 -0.09551997 0.10000000)
		(0.78770950 -0.07970882 0.10000000)
		(0.80446927 -0.06353413 0.10000000)
		(0.82122905 -0.04706969 0.10000000)
		(0.83798883 -0.03039058 0.10000000)
		(0.85474860 -0.01357287 0.10000000)
		(0.87150838 0.00330674 0.10000000)
		(0.88826816 0.02017127 0.10000000)
		(0.90502793 0.03694381 0.10000000)
		(0.92178771 0.05354786 0.10000000)
		(0.93854749 0.06990769 0.10000000)
		(0.95530726 0.08594870 0.10000000)
		(0.97206704 0.10159773 0.10000000)
		(0.98882682 0.11678340 0.10000000)
		(1.00558659 0.13143646 0.10000000)
		(1.02234637 0.14549009 0.10000000)
		(1.03910615 0.15888018 0.10000000)
		(1.05586592 0.17154567 0.10000000)
		(1.07262570 0.18342880 0.10000000)
		(1.08938547 0.19447538 0.10000000)
		(1.10614525 0.20463501 0.10000000)
		(1.12290503 0.21386138 0.10000000)
		(1.13966480 0.22211239 0.10000000)
		(1.15642458 0.22935043 0.10000000)
		(1.17318436 0.23554247 0.10000000)
		(1.18994413 0.24066028 0.10000000)
		(1.20670391 0.24468052 0.10000000)
		(1.22346369 0.24758486 0.10000000)
		(1.24022346 0.24936004 0.10000000)
		(1.25698324 0.24999798 0.10000000)
		(1.27374302 0.24949576 0.10000000)
		(1.29050279 0.24785567 0.10000000)
		(1.30726257 0.24508519 0.10000000)
		(1.32402235 0.24119697 0.10000000)
		(1.34078212 0.23620872 0.10000000)
		(1.35754190 0.23014321 0.10000000)
		(1.37430168 0.22302809 0.10000000)
		(1.39106145 0.21489581 0.10000000)
		(1.40782123 0.20578346 0.10000000)
		(1.42458101 0.19573261 0.10000000)
		(1.44134078 0.18478908 0.10000000)
		(1.45810056 0.17300280 0.10000000)
		(1.47486034 0.16042750 0.10000000)
		(1.49162011 0.14712055 0.10000000)
		(1.50837989 0.13314263 0.10000000)
		(1.52513966 0.11855749 0.10000000)
		(1.54189944 0.10343165 0.10000000)
		(1.55865922 0.08783410 0.10000000)
		(1.57541899 0.07183596 0.10000000)
		(1.59217877 0.05551020 0.10000000)
		(1.60893855 0.03893128 0.10000000)
		(1.62569832 0.02217480 0.10000000)
		(1.64245810 0.00531720 0.10000000)
		(1.65921788 -0.01156466 0.10000000)
		(1.67597765 -0.02839377 0.10000000)
		(1.69273743 -0.04509339 0.10000000)
		(1.70949721 -0.06158735 0.10000000)
		(1.72625698 -0.07780044 0.10000000)
		(1.74301676 -0.09365870 0.10000000)
		(1.75977654 -0.10908982 0.10000000)
		(1.77653631 -0.12402341 0.10000000)
		(1.79329609 -0.13839137 0.10000000)
		(1.81005587 -0.15212818 0.10000000)
		(1.82681564 -0.16517118 0.10000000)
		(1.84357542 -0.17746089 0.10000000)
		(1.86033520 -0.18894127 0.10000000)
		(1.87709497 -0.19955994 0.10000000)
		(1.89385475 -0.20926849 0.10000000)
		(1.91061453 -0.21802263 0.10000000)
		(1.92737430 -0.22578244 0.10000000)
		(1.94413408 -0.23251254 0.10000000)
		(1.96089385 -0.23818223 0.10000000)
		(1.97765363 -0.24276564 0.10000000)
		(1.99441341 -0.24624188 0.10000000)
		(2.01117318 -0.24859510 0.10000000)
		(2.02793296 -0.24981456 0.10000000)
		(2.04469274 -0.24989469 0.10000000)
		(2.06145251 -0.24883514 0.10000000)
		(2.07821229 -0.24664074 0.10000000)
		(2.09497207 -0.24332149 0.10000000)
		(2.11173184 -0.23889253 0.10000000)
		(2.12849162 -0.23337406 0.10000000)
		(2.14525140 -0.22679125 0.10000000)
		(2.16201117 -0.21917412 0.10000000)
		(2.17877095 -0.21055742 0.10000000)
		(2.19553073 -0.20098043 0.10000000)
		(2.21229050 -0.19048683 0.10000000)
		(2.22905028 -0.17912449 0.10000000)
		(2.24581006 -0.16694522 0.10000000)
		(2.26256983 -0.15400457 0.10000000)
		(2.27932961 -0.14036156 0.10000000)
		(2.29608939 -0.12607841 0.10000000)
		(2.31284916 -0.11122025 0.10000000)
		(2.32960894 -0.09585485 0.10000000)
		(2.34636872 -0.08005230 0.10000000)
		(2.36312849 -0.06388465 0.10000000)
		(2.37988827 -0.04742564 0.10000000)
		(2.39664804 -0.03075035 0.10000000)
		(2.41340782 -0.01393481 0.10000000)
		(2.43016760 0.00294428 0.10000000)
		(2.44692737 0.01980995 0.10000000)
		(2.46368715 0.03658527 0.10000000)
		(2.48044693 0.05319373 0.10000000)
		(2.49720670 0.06955959 0.10000000)
		(2.51396648 0.08560822 0.10000000)
		(2.53072626 0.10126642 0.10000000)
		(2.54748603 0.11646277 0.10000000)
		(2.56424581 0.13112798 0.10000000)
		(2.58100559 0.14519516 0.10000000)
		(2.59776536 0.15860014 0.10000000)
		(2.61452514 0.17128181 0.10000000)
		(2.63128492 0.18318232 0.10000000)
		(2.64804469 0.19424739 0.10000000)
		(2.66480447 0.20442657 0.10000000)
		(2.68156425 0.21367343 0.10000000)
		(2.69832402 0.22194579 0.10000000)
		(2.71508380 0.22920593 0.10000000)
		(2.73184358 0.23542074 0.10000000)
		(2.74860335 0.24056188 0.10000000)
		(2.76536313 0.24460589 0.10000000)
		(2.78212291 0.24753434 0.10000000)
		(2.79888268 0.24933386 0.10000000)
		(2.81564246 0.24999626 0.10000000)
		(2.83240223 0.24951851 0.10000000)
		(2.84916201 0.24790278 0.10000000)
		(2.86592179 0.24515646 0.10000000)
		(2.88268156 0.24129206 0.10000000)
		(2.89944134 0.23632720 0.10000000)
		(2.91620112 0.23028454 0.10000000)
		(2.93296089 0.22319163 0.10000000)
		(2.95166480 0.21594149 0.10000000)
		(2.97036872 0.20945453 0.10000000)
		(2.98907263 0.20373074 0.10000000)
		(3.00777654 0.19877013 0.10000000)
		(3.02648045 0.19457268 0.10000000)
		(3.04518436 0.19113841 0.10000000)
		(3.06388827 0.18846731 0.10000000)
		(3.08259218 0.18655938 0.10000000)
		(3.10129609 0.18541462 0.10000000)
		(3.12000000 0.18503303 0.10000000)
		(3.14000000 0.18503303 0.10000000)
		(3.16000000 0.18503303 0.10000000)
		(3.18000000 0.18503303 0.10000000)
		(3.20000000 0.18503303 0.10000000)
		(3.22000000 0.18503303 0.10000000)
		(3.24000000 0.18503303 0.10000000)
		(3.26000000 0.18503303 0.10000000)
		(3.28000000 0.18503303 0.10000000)
		(3.30000000 0.18503303 0.10000000)
		(3.32000000 0.18503303 0.10000000)
		(3.34000000 0.18503303 0.10000000)
		(3.36000000 0.18503303 0.10000000)
		(3.38000000 0.18503303 0.10000000)
		(3.40000000 0.18503303 0.10000000)
		(3.42000000 0.18503303 0.10000000)
		(3.44000000 0.18503303 0.10000000)
		(3.46000000 0.18503303 0.10000000)
		(3.48000000 0.18503303 0.10000000)
		(3.50000000 0.18503303 0.10000000)
		(3.52000000 0.18503303 0.10000000)
		(3.54000000 0.18503303 0.10000000)
		(3.56000000 0.18503303 0.10000000)
		(3.58000000 0.18503303 0.10000000)
		(3.60000000 0.18503303 0.10000000)
		(3.62000000 0.18503303 0.10000000)
		(3.64000000 0.18503303 0.10000000)
		(3.66000000 0.18503303 0.10000000)
		(3.68000000 0.18503303 0.10000000)
		(3.70000000 0.18503303 0.10000000)
		(3.72000000 0.18503303 0.10000000)
		(3.74000000 0.18503303 0.10000000)
		(3.76000000 0.18503303 0.10000000)
		(3.78000000 0.18503303 0.10000000)
		(3.80000000 0.18503303 0.10000000)
		(3.82000000 0.18503303 0.10000000)
		(3.84000000 0.18503303 0.10000000)
		(3.86000000 0.18503303 0.10000000)
		(3.88000000 0.18503303 0.10000000)
		(3.90000000 0.18503303 0.10000000)
		(3.92000000 0.18503303 0.10000000)
		(3.94000000 0.18503303 0.10000000)
		(3.96000000 0.18503303 0.10000000)
		(3.98000000 0.18503303 0.10000000)
		(4.00000000 0.18503303 0.10000000)
	)
	polyLine 3 2
	(
		(-1.00000000 0.58749463 0.00000000)
		(-0.98000000 0.58667236 0.00000000)
		(-0.96000000 0.58585009 0.00000000)
		(-0.94000000 0.58502782 0.00000000)
		(-0.92000000 0.58420555 0.00000000)
		(-0.90000000 0.58338328 0.00000000)
		(-0.88000000 0.58256101 0.00000000)
		(-0.86000000 0.58173874 0.00000000)
		(-0.84000000 0.58091647 0.00000000)
		(-0.82000000 0.58009420 0.00000000)
		(-0.80000000 0.57927193 0.00000000)
		(-0.78000000 0.57844965 0.00000000)
		(-0.76000000 0.57762738 0.00000000)
		(-0.74000000 0.57680511 0.00000000)
		(-0.72000000 0.57598284 0.00000000)
		(-0.70000000 0.57516057 0.00000000)
		(-0.68000000 0.57433830 0.00000000)
		(-0.66000000 0.57351603 0.00000000)
		(-0.64000000 0.57269376 0.00000000)
		(-0.62000000 0.57187149 0.00000000)
		(-0.60000000 0.57104922 0.00000000)
		(-0.58000000 0.57022695 0.00000000)
		(-0.56000000 0.56940468 0.00000000)
		(-0.54000000 0.56858241 0.00000000)
		(-0.52000000 0.56776014 0.00000000)
		(-0.50000000 0.56693787 0.00000000)
		(-0.48000000 0.56611560 0.00000000)
		(-0.46000000 0.56529333 0.00000000)
		(-0.44000000 0.56447106 0.00000000)
		(-0.42000000 0.56364879 0.00000000)
		(-0.40000000 0.56282652 0.00000000)
		(-0.38000000 0.56200424 0.00000000)
		(-0.36000000 0.56118197 0.00000000)
		(-0.34000000 0.56035970 0.00000000)
		(-0.32000000 0.55953743 0.00000000)
		(-0.30000000 0.55871516 0.00000000)
		(-0.28000000 0.55789289 0.00000000)
		(-0.26000000 0.55707062 0.00000000)
		(-0.24000000 0.55624835 0.00000000)
		(-0.22000000 0.55542608 0.00000000)
		(-0.20000000 0.55460381 0.00000000)
		(-0.18000000 0.55378154 0.00000000)
		(-0.16000000 0.55295927 0.00000000)
		(-0.14000000 0.55213700 0.00000000)
		(-0.12000000 0.55131473 0.00000000)
		(-0.10000000 0.55049246 0.00000000)
		(-0.08162011 0.55021595 0.00000000)
		(-0.06324022 0.54893824 0.00000000)
		(-0.04486034 0.54665932 0.00000000)
		(-0.02648045 0.54337919 0.00000000)
		(-0.00810056 0.53909786 0.00000000)
		(0.01027933 0.53381532 0.00000000)
		(0.02865922 0.52753158 0.00000000)
		(0.04703911 0.52024663 0.00000000)
		(0.06541899 0.51196047 0.00000000)
		(0.08379888 0.50267311 0.00000000)
		(0.10055866 0.49356552 0.00000000)
		(0.11731844 0.48448727 0.00000000)
		(0.13407821 0.47547978 0.00000000)
		(0.15083799 0.46658411 0.00000000)
		(0.16759777 0.45784084 0.00000000)
		(0.18435754 0.44928984 0.00000000)
		(0.20111732 0.44097012 0.00000000)
		(0.21787709 0.43291961 0.00000000)
		(0.23463687 0.42517503 0.00000000)
		(0.25139665 0.41777171 0.00000000)
		(0.26815642 0.41074340 0.00000000)
		(0.28491620 0.40412216 0.00000000)
		(0.30167598 0.39793818 0.00000000)
		(0.31843575 0.39221968 0.00000000)
		(0.33519553 0.38699273 0.00000000)
		(0.35195531 0.38228116 0.00000000)
		(0.36871508 0.37810647 0.00000000)
		(0.38547486 0.37448770 0.00000000)
		(0.40223464 0.37144135 0.00000000)
		(0.41899441 0.36898131 0.00000000)
		(0.43575419 0.36711880 0.00000000)
		(0.45251397 0.36586232 0.00000000)
		(0.46927374 0.36521759 0.00000000)
		(0.48603352 0.36518757 0.00000000)
		(0.50279330 0.36577237 0.00000000)
		(0.51955307 0.36696935 0.00000000)
		(0.53631285 0.36877303 0.00000000)
		(0.55307263 0.37117520 0.00000000)
		(0.56983240 0.37416489 0.00000000)
		(0.58659218 0.37772848 0.00000000)
		(0.60335196 0.38184970 0.00000000)
		(0.62011173 0.38650977 0.00000000)
		(0.63687151 0.39168743 0.00000000)
		(0.65363128 0.39735906 0.00000000)
		(0.67039106 0.40349881 0.00000000)
		(0.68715084 0.41007867 0.00000000)
		(0.70391061 0.41706863 0.00000000)
		(0.72067039 0.42443681 0.00000000)
		(0.73743017 0.43214961 0.00000000)
		(0.75418994 0.44017185 0.00000000)
		(0.77094972 0.44846695 0.00000000)
		(0.78770950 0.45699707 0.00000000)
		(0.80446927 0.46572332 0.00000000)
		(0.82122905 0.47460589 0.00000000)
		(0.83798883 0.48360427 0.00000000)
		(0.85474860 0.49267743 0.00000000)
		(0.87150838 0.50178399 0.00000000)
		(0.88826816 0.51088241 0.00000000)
		(0.90502793 0.51993119 0.00000000)
		(0.92178771 0.52888908 0.00000000)
		(0.93854749 0.53771522 0.00000000)
		(0.95530726 0.54636935 0.00000000)
		(0.97206704 0.55481200 0.00000000)
		(0.98882682 0.56300467 0.00000000)
		(1.00558659 0.57091000 0.00000000)
		(1.02234637 0.57849194 0.00000000)
		(1.03910615 0.58571590 0.00000000)
		(1.05586592 0.59254893 0.00000000)
		(1.07262570 0.59895989 0.00000000)
		(1.08938547 0.60491952 0.00000000)
		(1.10614525 0.61040064 0.00000000)
		(1.12290503 0.61537827 0.00000000)
		(1.13966480 0.61982969 0.00000000)
		(1.15642458 0.62373461 0.00000000)
		(1.17318436 0.62707522 0.00000000)
		(1.18994413 0.62983628 0.00000000)
		(1.20670391 0.63200521 0.00000000)
		(1.22346369 0.63357210 0.00000000)
		(1.24022346 0.63452981 0.00000000)
		(1.25698324 0.63487397 0.00000000)
		(1.27374302 0.63460303 0.00000000)
		(1.29050279 0.63371820 0.00000000)
		(1.30726257 0.63222353 0.00000000)
		(1.32402235 0.63012583 0.00000000)
		(1.34078212 0.62743467 0.00000000)
		(1.35754190 0.62416232 0.00000000)
		(1.37430168 0.62032371 0.00000000)
		(1.39106145 0.61593634 0.00000000)
		(1.40782123 0.61102023 0.00000000)
		(1.42458101 0.60559779 0.00000000)
		(1.44134078 0.59969376 0.00000000)
		(1.45810056 0.59333505 0.00000000)
		(1.47486034 0.58655068 0.00000000)
		(1.49162011 0.57937157 0.00000000)
		(1.50837989 0.57183048 0.00000000)
		(1.52513966 0.56396180 0.00000000)
		(1.54189944 0.55580140 0.00000000)
		(1.55865922 0.54738652 0.00000000)
		(1.57541899 0.53875552 0.00000000)
		(1.59217877 0.52994777 0.00000000)
		(1.60893855 0.52100343 0.00000000)
		(1.62569832 0.51196331 0.00000000)
		(1.64245810 0.50286863 0.00000000)
		(1.65921788 0.49376086 0.00000000)
		(1.67597765 0.48468155 0.00000000)
		(1.69273743 0.47567210 0.00000000)
		(1.70949721 0.46677361 0.00000000)
		(1.72625698 0.45802664 0.00000000)
		(1.74301676 0.44947111 0.00000000)
		(1.75977654 0.44114602 0.00000000)
		(1.77653631 0.43308934 0.00000000)
		(1.79329609 0.42533782 0.00000000)
		(1.81005587 0.41792681 0.00000000)
		(1.82681564 0.41089010 0.00000000)
		(1.84357542 0.40425980 0.00000000)
		(1.86033520 0.39806614 0.00000000)
		(1.87709497 0.39233736 0.00000000)
		(1.89385475 0.38709960 0.00000000)
		(1.91061453 0.38237673 0.00000000)
		(1.92737430 0.37819031 0.00000000)
		(1.94413408 0.37455942 0.00000000)
		(1.96089385 0.37150063 0.00000000)
		(1.97765363 0.36902787 0.00000000)
		(1.99441341 0.36715244 0.00000000)
		(2.01117318 0.36588288 0.00000000)
		(2.02793296 0.36522498 0.00000000)
		(2.04469274 0.36518175 0.00000000)
		(2.06145251 0.36575338 0.00000000)
		(2.07821229 0.36693726 0.00000000)
		(2.09497207 0.36872800 0.00000000)
		(2.11173184 0.37111742 0.00000000)
		(2.12849162 0.37409463 0.00000000)
		(2.14525140 0.37764606 0.00000000)
		(2.16201117 0.38175550 0.00000000)
		(2.17877095 0.38640422 0.00000000)
		(2.19553073 0.39157101 0.00000000)
		(2.21229050 0.39723230 0.00000000)
		(2.22905028 0.40336229 0.00000000)
		(2.24581006 0.40993301 0.00000000)
		(2.26256983 0.41691449 0.00000000)
		(2.27932961 0.42427490 0.00000000)
		(2.29608939 0.43198067 0.00000000)
		(2.31284916 0.43999665 0.00000000)
		(2.32960894 0.44828628 0.00000000)
		(2.34636872 0.45681176 0.00000000)
		(2.36312849 0.46553422 0.00000000)
		(2.37988827 0.47441385 0.00000000)
		(2.39664804 0.48341018 0.00000000)
		(2.41340782 0.49248217 0.00000000)
		(2.43016760 0.50158844 0.00000000)
		(2.44692737 0.51068747 0.00000000)
		(2.46368715 0.51973776 0.00000000)
		(2.48044693 0.52869803 0.00000000)
		(2.49720670 0.53752742 0.00000000)
		(2.51396648 0.54618566 0.00000000)
		(2.53072626 0.55463326 0.00000000)
		(2.54748603 0.56283170 0.00000000)
		(2.56424581 0.57074358 0.00000000)