/*--------------------------------*- C++ -*----------------------------------*\\
/*--------------------------------*- C++ -*----------------------------------*\\
| =========                 |                                                 |
| \\\\      /  F ield         | OpenFOAM: The Open Source CFD Toolbox           |
|  \\\\    /   O peration     | Version:  v2012                                 |
|   \\\\  /    A nd           | Website:  www.openfoam.com                      |
|    \\\\/     M anipulation  |                                                 |
\\*---------------------------------------------------------------------------*/
FoamFile
{
    version     2.0;
    format      ascii;
    class       dictionary;
    object      blockMeshDict;
}
// * * * * * * * * * * * * * * * * * * * * * * * * * * * * * * * * * * * * * //

scale   0.01;

xmin -1;
xmax 5;
ymin 0;
ymax 0.5;
zmin 0;
zmax 0.1;

vertices
(
    (  -1.0  0.0  $zmin  )
    (  4.0  0.10302962131043915  $zmin  )
    (  4.0  0.6030296213104391  $zmin  )
    (  -1.0  0.5  $zmin  )
    (  -1.0  0.0  $zmax )
    (  4.0  0.10302962131043915  $zmax )
    (  4.0  0.6030296213104391  $zmax )
    (  -1.0  0.5  $zmax )
);

blocks
(
    hex (0 1 2 3 4 5 6 7) (200 20 1) simpleGrading (1 1 1)
);

edges
(
	polyLine 0 1 ((	-1.0	0.0	0	)
(	-0.98	0.0	0	)
(	-0.96	0.0	0	)
(	-0.94	0.0	0	)
(	-0.92	0.0	0	)
(	-0.9	0.0	0	)
(	-0.88	0.0	0	)
(	-0.86	0.0	0	)
(	-0.84	0.0	0	)
(	-0.8200000000000001	0.0	0	)
(	-0.8	0.0	0	)
(	-0.78	0.0	0	)
(	-0.76	0.0	0	)
(	-0.74	0.0	0	)
(	-0.72	0.0	0	)
(	-0.7	0.0	0	)
(	-0.6799999999999999	0.0	0	)
(	-0.6599999999999999	0.0	0	)
(	-0.64	0.0	0	)
(	-0.62	0.0	0	)
(	-0.6	0.0	0	)
(	-0.5800000000000001	0.0	0	)
(	-0.56	0.0	0	)
(	-0.54	0.0	0	)
(	-0.52	0.0	0	)
(	-0.5	0.0	0	)
(	-0.48	0.0	0	)
(	-0.45999999999999996	0.0	0	)
(	-0.43999999999999995	0.0	0	)
(	-0.42000000000000004	0.0	0	)
(	-0.4	0.0	0	)
(	-0.38	0.0	0	)
(	-0.36	0.0	0	)
(	-0.33999999999999997	0.0	0	)
(	-0.31999999999999995	0.0	0	)
(	-0.29999999999999993	0.0	0	)
(	-0.28	0.0	0	)
(	-0.26	0.0	0	)
(	-0.24	0.0	0	)
(	-0.21999999999999997	0.0	0	)
(	-0.19999999999999996	0.0	0	)
(	-0.17999999999999994	0.0	0	)
(	-0.16000000000000003	0.0	0	)
(	-0.14	0.0	0	)
(	-0.12	0.0	0	)
(	-0.09999999999999998	0.0	0	)
(	-0.07957790192427062	-0.00037161704086032985	0	)
(	-0.059155803848541265	0.0010771489782000756	0	)
(	-0.038733705772811905	0.004346298057181217	0	)
(	-0.018311607697082552	0.009435830196083092	0	)
(	0.002110490378646801	0.016345745394905704	0	)
(	0.022532588454376168	0.025076043653649054	0	)
(	0.04295468653010551	0.035626724972313124	0	)
(	0.06337678460583487	0.04799778935089794	0	)
(	0.08379888268156424	0.06218923678940351	0	)
(	0.08379888268156424	0.06218923678940351	0	)
(	0.1005586592178771	0.07428022836895701	0	)
(	0.11731843575418995	0.08618347827124181	0	)
(	0.1340782122905028	0.09786890128851593	0	)
(	0.15083798882681565	0.1093069627657974	0	)
(	0.16759776536312848	0.12046875324906868	0	)
(	0.18435754189944134	0.1313260615532989	0	)
(	0.2011173184357542	0.14185144606560643	0	)
(	0.21787709497206703	0.1520183041033444	0	)
(	0.2346368715083799	0.161800939151808	0	)
(	0.25139664804469275	0.17117462581162202	0	)
(	0.2681564245810056	0.1801156722916551	0	)
(	0.2849162011173184	0.1886014802895116	0	)
(	0.3016759776536313	0.19661060210825415	0	)
(	0.31843575418994413	0.20412279486499565	0	)
(	0.33519553072625696	0.21111907165434973	0	)
(	0.35195530726256985	0.2175817495374253	0	)
(	0.3687150837988827	0.2234944942350735	0	)
(	0.3854748603351955	0.22884236141242664	0	)
(	0.4022346368715084	0.23361183445038253	0	)
(	0.41899441340782123	0.23779085860856813	0	)
(	0.43575418994413406	0.2413688714934364	0	)
(	0.4525139664804469	0.24433682975448806	0	)
(	0.4692737430167598	0.24668723194114575	0	)
(	0.4860335195530726	0.2484141374625084	0	)
(	0.5027932960893855	0.2495131816020669	0	)
(	0.5195530726256983	0.24998158654943092	0	)
(	0.5363128491620112	0.2498181684211851	0	)
(	0.553072625698324	0.24902334025312856	0	)
(	0.5698324022346368	0.2475991109563363	0	)
(	0.5865921787709497	0.24554908023967925	0	)
(	0.6033519553072626	0.24287842951163774	0	)
(	0.6201117318435754	0.23959390878440334	0	)
(	0.6368715083798883	0.23570381961336823	0	)
(	0.6536312849162011	0.23121799411512306	0	)
(	0.6703910614525139	0.2261477701169937	0	)
(	0.6871508379888268	0.22050596250092705	0	)
(	0.7039106145251397	0.2143068308141529	0	)
(	0.7206703910614525	0.20756604322848551	0	)
(	0.7374301675977654	0.2003006369393566	0	)
(	0.7541899441340782	0.19252897510467132	0	)
(	0.770949720670391	0.18427070043232172	0	)
(	0.7877094972067039	0.17554668553366584	0	)
(	0.8044692737430168	0.16637898016845204	0	)
(	0.8212290502793296	0.15679075551452637	0	)
(	0.8379888268156425	0.14680624560317898	0	)
(	0.8547486033519552	0.13645068606815322	0	)
(	0.8715083798882681	0.1257502503631234	0	)
(	0.888268156424581	0.11473198360885588	0	)
(	0.9050279329608938	0.10342373423724782	0	)
(	0.9217877094972067	0.09185408360501555	0	)
(	0.9385474860335196	0.08005227375493147	0	)
(	0.9553072625698323	0.06804813350719087	0	)
(	0.9720670391061452	0.05587200306771039	0	)
(	0.9888268156424581	0.043554657343912485	0	)
(	1.005586592178771	0.03112722816180865	0	)
(	1.0223463687150838	0.018621125580980356	0	)
(	1.0391061452513966	0.00606795850632946	0	)
(	1.0558659217877095	-0.006500545202747554	0	)
(	1.0726256983240223	-0.019052618923840806	0	)
(	1.089385474860335	-0.03155653756098139	0	)
(	1.106145251396648	-0.04398069772913817	0	)
(	1.1229050279329609	-0.0562936976310917	0	)
(	1.1396648044692737	-0.06846441642480182	0	)
(	1.1564245810055866	-0.08046209288066448	0	)
(	1.1731843575418994	-0.0922564031298572	0	)
(	1.1899441340782122	-0.10381753730726467	0	)
(	1.2067039106145252	-0.11511627489527097	0	)
(	1.223463687150838	-0.12612405857798734	0	)
(	1.2402234636871508	-0.13681306641925442	0	)
(	1.2569832402234637	-0.1471562821819857	0	)
(	1.2737430167597765	-0.1571275636111249	0	)
(	1.2905027932960893	-0.1667017085076329	0	)
(	1.3072625698324023	-0.1758545184265031	0	)
(	1.324022346368715	-0.18456285983780907	0	)
(	1.3407821229050279	-0.1928047225962044	0	)
(	1.3575418994413408	-0.2005592755710899	0	)
(	1.3743016759776536	-0.207806919296848	0	)
(	1.3910614525139664	-0.21452933551007017	0	)
(	1.4078212290502794	-0.2207095334485728	0	)
(	1.4245810055865922	-0.22633189279518243	0	)
(	1.441340782122905	-0.23138220315775146	0	)
(	1.458100558659218	-0.2358476999856181	0	)
(	1.4748603351955307	-0.23971709683173284	0	)
(	1.4916201117318435	-0.2429806138789106	0	)
(	1.5083798882681565	-0.24563000265810817	0	)
(	1.5251396648044693	-0.24765856689625168	0	)
(	1.541899441340782	-0.2490611794409229	0	)
(	1.558659217877095	-0.24983429521912628	0	)
(	1.5754189944134078	-0.24997596019738452	0	)
(	1.5921787709497206	-0.2494858163205165	0	)
(	1.6089385474860336	-0.2483651024166137	0	)
(	1.6256983240223464	-0.2466166510659291	0	)
(	1.6424581005586592	-0.2442448814415913	0	)
(	1.659217877094972	-0.24125578814023982	0	)
(	1.675977653631285	-0.2376569260308113	0	)
(	1.6927374301675977	-0.2334573911597709	0	)
(	1.7094972067039105	-0.22866779776105073	0	)
(	1.7262569832402235	-0.22330025142880208	0	)
(	1.7430167597765363	-0.2173683185207674	0	)
(	1.759776536312849	-0.21088699186960297	0	)
(	1.776536312849162	-0.203872652888817	0	)
(	1.7932960893854748	-0.1963430301691007	0	)
(	1.8100558659217876	-0.18831715466969629	0	)
(	1.8268156424581006	-0.17981531161805772	0	)
(	1.8435754189944134	-0.17085898923937576	0	)
(	1.8603351955307261	-0.16147082444555047	0	)
(	1.8770949720670391	-0.15167454562088528	0	)
(	1.893854748603352	-0.14149491264910607	0	)
(	1.9106145251396647	-0.13095765433328804	0	)
(	1.9273743016759777	-0.12008940336686054	0	)
(	1.9441340782122905	-0.10891762902004838	0	)
(	1.9608938547486032	-0.09747056771188267	0	)
(	1.9776536312849162	-0.08577715164325929	0	)
(	1.994413407821229	-0.07386693567142572	0	)
(	2.011173184357542	-0.06177002261071429	0	)
(	2.0279329608938546	-0.04951698714832921	0	)
(	2.0446927374301676	-0.03713879856748069	0	)
(	2.0614525139664805	-0.02466674247319145	0	)
(	2.078212290502793	-0.012132341718602396	0	)
(	2.094972067039106	0.0004327232683601741	0	)
(	2.111731843575419	0.012996694556582462	0	)
(	2.1284916201117317	0.025527816979250672	0	)
(	2.1452513966480447	0.037994418394351824	0	)
(	2.1620111731843576	0.05036498973532918	0	)
(	2.17877094972067	0.06260826464956971	0	)
(	2.195530726256983	0.07469329852343844	0	)
(	2.212290502793296	0.0865895466941202	0	)
(	2.2290502793296088	0.09826694165059839	0	)
(	2.2458100558659218	0.10969596902864266	0	)
(	2.2625698324022347	0.12084774220772626	0	)
(	2.2793296089385473	0.1316940753213387	0	)
(	2.2960893854748603	0.14220755449615663	0	)
(	2.3128491620111733	0.15236160714001704	0	)
(	2.329608938547486	0.16213056910357218	0	)
(	2.346368715083799	0.17148974954587476	0	)
(	2.363128491620112	0.1804154933399456	0	)
(	2.3798882681564244	0.1888852408605979	0	)
(	2.3966480446927374	0.1968775850034051	0	)
(	2.4134078212290504	0.2043723252906943	0	)
(	2.430167597765363	0.2113505189278196	0	)
(	2.446927374301676	0.21779452868066806	0	)
(	2.463687150837989	0.22368806745338773	0	)
(	2.4804469273743015	0.22901623945367236	0	)
(	2.4972067039106145	0.23376557784155572	0	)
(	2.5139664804469275	0.23792407876655916	0	)
(	2.53072625698324	0.24148123170716523	0	)
(	2.547486033519553	0.2444280460359348	0	)
(	2.564245810055866	0.2467570737431237	0	)
(	2.5810055865921786	0.24846242826136733	0	)
(	2.5977653631284916	0.24953979934385292	0	)
(	2.6145251396648046	0.24998646395837495	0	)
(	2.631284916201117	0.24980129316974112	0	)
(	2.64804469273743	0.24898475499313114	0	)
(	2.664804469273743	0.24753891321119895	0	)
(	2.6815642458100557	0.24546742215790615	0	)
(	2.6983240223463687	0.24277551748227186	0	)
(	2.7150837988826817	0.239470002915382	0	)
(	2.7318435754189943	0.23555923307410687	0	)
(	2.7486033519553073	0.2310530923449852	0	)
(	2.7653631284916202	0.22596296990165152	0	)
(	2.782122905027933	0.22030173091894456	0	)
(	2.798882681564246	0.21408368405645442	0	)
(	2.815642458100559	0.20732454529369465	0	)
(	2.8324022346368714	0.20004139820830225	0	)
(	2.8491620111731844	0.19225265079766213	0	)
(	2.8659217877094973	0.18397798895309184	0	)
(	2.88268156424581	0.17523832670417455	0	)
(	2.899441340782123	0.1660557533589985	0	)
(	2.916201117318436	0.15645347767390996	0	)
(	2.9329608938547485	0.14645576919387704	0	)
(	2.9537430167597765	0.13672366331378563	0	)
(	2.9745251396648045	0.12821830201806603	0	)
(	2.9953072625698325	0.12093968530671821	0	)
(	3.0160893854748605	0.1148878131797422	0	)
(	3.036871508379888	0.11006268563713809	0	)
(	3.057653631284916	0.10646430267890565	0	)
(	3.078435754189944	0.10409266430504502	0	)
(	3.099217877094972	0.10294777051555619	0	)
(	3.12	0.10302962131043915	0	)
(	3.12	0.10302962131043915	0	)
(	3.14	0.10302962131043915	0	)
(	3.16	0.10302962131043915	0	)
(	3.1799999999999997	0.10302962131043915	0	)
(	3.2	0.10302962131043915	0	)
(	3.2199999999999998	0.10302962131043915	0	)
(	3.24	0.10302962131043915	0	)
(	3.26	0.10302962131043915	0	)
(	3.2800000000000002	0.10302962131043915	0	)
(	3.3	0.10302962131043915	0	)
(	3.32	0.10302962131043915	0	)
(	3.34	0.10302962131043915	0	)
(	3.36	0.10302962131043915	0	)
(	3.38	0.10302962131043915	0	)
(	3.4	0.10302962131043915	0	)
(	3.42	0.10302962131043915	0	)
(	3.44	0.10302962131043915	0	)
(	3.46	0.10302962131043915	0	)
(	3.48	0.10302962131043915	0	)
(	3.5	0.10302962131043915	0	)
(	3.52	0.10302962131043915	0	)
(	3.54	0.10302962131043915	0	)
(	3.56	0.10302962131043915	0	)
(	3.58	0.10302962131043915	0	)
(	3.6	0.10302962131043915	0	)
(	3.62	0.10302962131043915	0	)
(	3.64	0.10302962131043915	0	)
(	3.66	0.10302962131043915	0	)
(	3.68	0.10302962131043915	0	)
(	3.7	0.10302962131043915	0	)
(	3.7199999999999998	0.10302962131043915	0	)
(	3.74	0.10302962131043915	0	)
(	3.76	0.10302962131043915	0	)
(	3.78	0.10302962131043915	0	)
(	3.8	0.10302962131043915	0	)
(	3.82	0.10302962131043915	0	)
(	3.84	0.10302962131043915	0	)
(	3.86	0.10302962131043915	0	)
(	3.88	0.10302962131043915	0	)
(	3.9	0.10302962131043915	0	)
(	3.92	0.10302962131043915	0	)
(	3.94	0.10302962131043915	0	)
(	3.96	0.10302962131043915	0	)
(	3.98	0.10302962131043915	0	)
(	4.0	0.10302962131043915	0	)
)
	polyLine 4 5 ((	-1.0	0.0	0.1	)
(	-0.98	0.0	0.1	)
(	-0.96	0.0	0.1	)
(	-0.94	0.0	0.1	)
(	-0.92	0.0	0.1	)
(	-0.9	0.0	0.1	)
(	-0.88	0.0	0.1	)
(	-0.86	0.0	0.1	)
(	-0.84	0.0	0.1	)
(	-0.8200000000000001	0.0	0.1	)
(	-0.8	0.0	0.1	)
(	-0.78	0.0	0.1	)
(	-0.76	0.0	0.1	)
(	-0.74	0.0	0.1	)
(	-0.72	0.0	0.1	)
(	-0.7	0.0	0.1	)
(	-0.6799999999999999	0.0	0.1	)
(	-0.6599999999999999	0.0	0.1	)
(	-0.64	0.0	0.1	)
(	-0.62	0.0	0.1	)
(	-0.6	0.0	0.1	)
(	-0.5800000000000001	0.0	0.1	)
(	-0.56	0.0	0.1	)
(	-0.54	0.0	0.1	)
(	-0.52	0.0	0.1	)
(	-0.5	0.0	0.1	)
(	-0.48	0.0	0.1	)
(	-0.45999999999999996	0.0	0.1	)
(	-0.43999999999999995	0.0	0.1	)
(	-0.42000000000000004	0.0	0.1	)
(	-0.4	0.0	0.1	)
(	-0.38	0.0	0.1	)
(	-0.36	0.0	0.1	)
(	-0.33999999999999997	0.0	0.1	)
(	-0.31999999999999995	0.0	0.1	)
(	-0.29999999999999993	0.0	0.1	)
(	-0.28	0.0	0.1	)
(	-0.26	0.0	0.1	)
(	-0.24	0.0	0.1	)
(	-0.21999999999999997	0.0	0.1	)
(	-0.19999999999999996	0.0	0.1	)
(	-0.17999999999999994	0.0	0.1	)
(	-0.16000000000000003	0.0	0.1	)
(	-0.14	0.0	0.1	)
(	-0.12	0.0	0.1	)
(	-0.09999999999999998	0.0	0.1	)
(	-0.07957790192427062	-0.00037161704086032985	0.1	)
(	-0.059155803848541265	0.0010771489782000756	0.1	)
(	-0.038733705772811905	0.004346298057181217	0.1	)
(	-0.018311607697082552	0.009435830196083092	0.1	)
(	0.002110490378646801	0.016345745394905704	0.1	)
(	0.022532588454376168	0.025076043653649054	0.1	)
(	0.04295468653010551	0.035626724972313124	0.1	)
(	0.06337678460583487	0.04799778935089794	0.1	)
(	0.08379888268156424	0.06218923678940351	0.1	)
(	0.08379888268156424	0.06218923678940351	0.1	)
(	0.1005586592178771	0.07428022836895701	0.1	)
(	0.11731843575418995	0.08618347827124181	0.1	)
(	0.1340782122905028	0.09786890128851593	0.1	)
(	0.15083798882681565	0.1093069627657974	0.1	)
(	0.16759776536312848	0.12046875324906868	0.1	)
(	0.18435754189944134	0.1313260615532989	0.1	)
(	0.2011173184357542	0.14185144606560643	0.1	)
(	0.21787709497206703	0.1520183041033444	0.1	)
(	0.2346368715083799	0.161800939151808	0.1	)
(	0.25139664804469275	0.17117462581162202	0.1	)
(	0.2681564245810056	0.1801156722916551	0.1	)
(	0.2849162011173184	0.1886014802895116	0.1	)
(	0.3016759776536313	0.19661060210825415	0.1	)
(	0.31843575418994413	0.20412279486499565	0.1	)
(	0.33519553072625696	0.21111907165434973	0.1	)
(	0.35195530726256985	0.2175817495374253	0.1	)
(	0.3687150837988827	0.2234944942350735	0.1	)
(	0.3854748603351955	0.22884236141242664	0.1	)
(	0.4022346368715084	0.23361183445038253	0.1	)
(	0.41899441340782123	0.23779085860856813	0.1	)
(	0.43575418994413406	0.2413688714934364	0.1	)
(	0.4525139664804469	0.24433682975448806	0.1	)
(	0.4692737430167598	0.24668723194114575	0.1	)
(	0.4860335195530726	0.2484141374625084	0.1	)
(	0.5027932960893855	0.2495131816020669	0.1	)
(	0.5195530726256983	0.24998158654943092	0.1	)
(	0.5363128491620112	0.2498181684211851	0.1	)
(	0.553072625698324	0.24902334025312856	0.1	)
(	0.5698324022346368	0.2475991109563363	0.1	)
(	0.5865921787709497	0.24554908023967925	0.1	)
(	0.6033519553072626	0.24287842951163774	0.1	)
(	0.6201117318435754	0.23959390878440334	0.1	)
(	0.6368715083798883	0.23570381961336823	0.1	)
(	0.6536312849162011	0.23121799411512306	0.1	)
(	0.6703910614525139	0.2261477701169937	0.1	)
(	0.6871508379888268	0.22050596250092705	0.1	)
(	0.7039106145251397	0.2143068308141529	0.1	)
(	0.7206703910614525	0.20756604322848551	0.1	)
(	0.7374301675977654	0.2003006369393566	0.1	)
(	0.7541899441340782	0.19252897510467132	0.1	)
(	0.770949720670391	0.18427070043232172	0.1	)
(	0.7877094972067039	0.17554668553366584	0.1	)
(	0.8044692737430168	0.16637898016845204	0.1	)
(	0.8212290502793296	0.15679075551452637	0.1	)
(	0.8379888268156425	0.14680624560317898	0.1	)
(	0.8547486033519552	0.13645068606815322	0.1	)
(	0.8715083798882681	0.1257502503631234	0.1	)
(	0.888268156424581	0.11473198360885588	0.1	)
(	0.9050279329608938	0.10342373423724782	0.1	)
(	0.9217877094972067	0.09185408360501555	0.1	)
(	0.9385474860335196	0.08005227375493147	0.1	)
(	0.9553072625698323	0.06804813350719087	0.1	)
(	0.9720670391061452	0.05587200306771039	0.1	)
(	0.9888268156424581	0.043554657343912485	0.1	)
(	1.005586592178771	0.03112722816180865	0.1	)
(	1.0223463687150838	0.018621125580980356	0.1	)
(	1.0391061452513966	0.00606795850632946	0.1	)
(	1.0558659217877095	-0.006500545202747554	0.1	)
(	1.0726256983240223	-0.019052618923840806	0.1	)
(	1.089385474860335	-0.03155653756098139	0.1	)
(	1.106145251396648	-0.04398069772913817	0.1	)
(	1.1229050279329609	-0.0562936976310917	0.1	)
(	1.1396648044692737	-0.06846441642480182	0.1	)
(	1.1564245810055866	-0.08046209288066448	0.1	)
(	1.1731843575418994	-0.0922564031298572	0.1	)
(	1.1899441340782122	-0.10381753730726467	0.1	)
(	1.2067039106145252	-0.11511627489527097	0.1	)
(	1.223463687150838	-0.12612405857798734	0.1	)
(	1.2402234636871508	-0.13681306641925442	0.1	)
(	1.2569832402234637	-0.1471562821819857	0.1	)
(	1.2737430167597765	-0.1571275636111249	0.1	)
(	1.2905027932960893	-0.1667017085076329	0.1	)
(	1.3072625698324023	-0.1758545184265031	0.1	)
(	1.324022346368715	-0.18456285983780907	0.1	)
(	1.3407821229050279	-0.1928047225962044	0.1	)
(	1.3575418994413408	-0.2005592755710899	0.1	)
(	1.3743016759776536	-0.207806919296848	0.1	)
(	1.3910614525139664	-0.21452933551007017	0.1	)
(	1.4078212290502794	-0.2207095334485728	0.1	)
(	1.4245810055865922	-0.22633189279518243	0.1	)
(	1.441340782122905	-0.23138220315775146	0.1	)
(	1.458100558659218	-0.2358476999856181	0.1	)
(	1.4748603351955307	-0.23971709683173284	0.1	)
(	1.4916201117318435	-0.2429806138789106	0.1	)
(	1.5083798882681565	-0.24563000265810817	0.1	)
(	1.5251396648044693	-0.24765856689625168	0.1	)
(	1.541899441340782	-0.2490611794409229	0.1	)
(	1.558659217877095	-0.24983429521912628	0.1	)
(	1.5754189944134078	-0.24997596019738452	0.1	)
(	1.5921787709497206	-0.2494858163205165	0.1	)
(	1.6089385474860336	-0.2483651024166137	0.1	)
(	1.6256983240223464	-0.2466166510659291	0.1	)
(	1.6424581005586592	-0.2442448814415913	0.1	)
(	1.659217877094972	-0.24125578814023982	0.1	)
(	1.675977653631285	-0.2376569260308113	0.1	)
(	1.6927374301675977	-0.2334573911597709	0.1	)
(	1.7094972067039105	-0.22866779776105073	0.1	)
(	1.7262569832402235	-0.22330025142880208	0.1	)
(	1.7430167597765363	-0.2173683185207674	0.1	)
(	1.759776536312849	-0.21088699186960297	0.1	)
(	1.776536312849162	-0.203872652888817	0.1	)
(	1.7932960893854748	-0.1963430301691007	0.1	)
(	1.8100558659217876	-0.18831715466969629	0.1	)
(	1.8268156424581006	-0.17981531161805772	0.1	)
(	1.8435754189944134	-0.17085898923937576	0.1	)
(	1.8603351955307261	-0.16147082444555047	0.1	)
(	1.8770949720670391	-0.15167454562088528	0.1	)
(	1.893854748603352	-0.14149491264910607	0.1	)
(	1.9106145251396647	-0.13095765433328804	0.1	)
(	1.9273743016759777	-0.12008940336686054	0.1	)
(	1.9441340782122905	-0.10891762902004838	0.1	)
(	1.9608938547486032	-0.09747056771188267	0.1	)
(	1.9776536312849162	-0.08577715164325929	0.1	)
(	1.994413407821229	-0.07386693567142572	0.1	)
(	2.011173184357542	-0.06177002261071429	0.1	)
(	2.0279329608938546	-0.04951698714832921	0.1	)
(	2.0446927374301676	-0.03713879856748069	0.1	)
(	2.0614525139664805	-0.02466674247319145	0.1	)
(	2.078212290502793	-0.012132341718602396	0.1	)
(	2.094972067039106	0.0004327232683601741	0.1	)
(	2.111731843575419	0.012996694556582462	0.1	)
(	2.1284916201117317	0.025527816979250672	0.1	)
(	2.1452513966480447	0.037994418394351824	0.1	)
(	2.1620111731843576	0.05036498973532918	0.1	)
(	2.17877094972067	0.06260826464956971	0.1	)
(	2.195530726256983	0.07469329852343844	0.1	)
(	2.212290502793296	0.0865895466941202	0.1	)
(	2.2290502793296088	0.09826694165059839	0.1	)
(	2.2458100558659218	0.10969596902864266	0.1	)
(	2.2625698324022347	0.12084774220772626	0.1	)
(	2.2793296089385473	0.1316940753213387	0.1	)
(	2.2960893854748603	0.14220755449615663	0.1	)
(	2.3128491620111733	0.15236160714001704	0.1	)
(	2.329608938547486	0.16213056910357218	0.1	)
(	2.346368715083799	0.17148974954587476	0.1	)
(	2.363128491620112	0.1804154933399456	0.1	)
(	2.3798882681564244	0.1888852408605979	0.1	)
(	2.3966480446927374	0.1968775850034051	0.1	)
(	2.4134078212290504	0.2043723252906943	0.1	)
(	2.430167597765363	0.2113505189278196	0.1	)
(	2.446927374301676	0.21779452868066806	0.1	)
(	2.463687150837989	0.22368806745338773	0.1	)
(	2.4804469273743015	0.22901623945367236	0.1	)
(	2.4972067039106145	0.23376557784155572	0.1	)
(	2.5139664804469275	0.23792407876655916	0.1	)
(	2.53072625698324	0.24148123170716523	0.1	)
(	2.547486033519553	0.2444280460359348	0.1	)
(	2.564245810055866	0.2467570737431237	0.1	)
(	2.5810055865921786	0.24846242826136733	0.1	)
(	2.5977653631284916	0.24953979934385292	0.1	)
(	2.6145251396648046	0.24998646395837495	0.1	)
(	2.631284916201117	0.24980129316974112	0.1	)
(	2.64804469273743	0.24898475499313114	0.1	)
(	2.664804469273743	0.24753891321119895	0.1	)
(	2.6815642458100557	0.24546742215790615	0.1	)
(	2.6983240223463687	0.24277551748227186	0.1	)
(	2.7150837988826817	0.239470002915382	0.1	)
(	2.7318435754189943	0.23555923307410687	0.1	)
(	2.7486033519553073	0.2310530923449852	0.1	)
(	2.7653631284916202	0.22596296990165152	0.1	)
(	2.782122905027933	0.22030173091894456	0.1	)
(	2.798882681564246	0.21408368405645442	0.1	)
(	2.815642458100559	0.20732454529369465	0.1	)
(	2.8324022346368714	0.20004139820830225	0.1	)
(	2.8491620111731844	0.19225265079766213	0.1	)
(	2.8659217877094973	0.18397798895309184	0.1	)
(	2.88268156424581	0.17523832670417455	0.1	)
(	2.899441340782123	0.1660557533589985	0.1	)
(	2.916201117318436	0.15645347767390996	0.1	)
(	2.9329608938547485	0.14645576919387704	0.1	)
(	2.9537430167597765	0.13672366331378563	0.1	)
(	2.9745251396648045	0.12821830201806603	0.1	)
(	2.9953072625698325	0.12093968530671821	0.1	)
(	3.0160893854748605	0.1148878131797422	0.1	)
(	3.036871508379888	0.11006268563713809	0.1	)
(	3.057653631284916	0.10646430267890565	0.1	)
(	3.078435754189944	0.10409266430504502	0.1	)
(	3.099217877094972	0.10294777051555619	0.1	)
(	3.12	0.10302962131043915	0.1	)
(	3.12	0.10302962131043915	0.1	)
(	3.14	0.10302962131043915	0.1	)
(	3.16	0.10302962131043915	0.1	)
(	3.1799999999999997	0.10302962131043915	0.1	)
(	3.2	0.10302962131043915	0.1	)
(	3.2199999999999998	0.10302962131043915	0.1	)
(	3.24	0.10302962131043915	0.1	)
(	3.26	0.10302962131043915	0.1	)
(	3.2800000000000002	0.10302962131043915	0.1	)
(	3.3	0.10302962131043915	0.1	)
(	3.32	0.10302962131043915	0.1	)
(	3.34	0.10302962131043915	0.1	)
(	3.36	0.10302962131043915	0.1	)
(	3.38	0.10302962131043915	0.1	)
(	3.4	0.10302962131043915	0.1	)
(	3.42	0.10302962131043915	0.1	)
(	3.44	0.10302962131043915	0.1	)
(	3.46	0.10302962131043915	0.1	)
(	3.48	0.10302962131043915	0.1	)
(	3.5	0.10302962131043915	0.1	)
(	3.52	0.10302962131043915	0.1	)
(	3.54	0.10302962131043915	0.1	)
(	3.56	0.10302962131043915	0.1	)
(	3.58	0.10302962131043915	0.1	)
(	3.6	0.10302962131043915	0.1	)
(	3.62	0.10302962131043915	0.1	)
(	3.64	0.10302962131043915	0.1	)
(	3.66	0.10302962131043915	0.1	)
(	3.68	0.10302962131043915	0.1	)
(	3.7	0.10302962131043915	0.1	)
(	3.7199999999999998	0.10302962131043915	0.1	)
(	3.74	0.10302962131043915	0.1	)
(	3.76	0.10302962131043915	0.1	)
(	3.78	0.10302962131043915	0.1	)
(	3.8	0.10302962131043915	0.1	)
(	3.82	0.10302962131043915	0.1	)
(	3.84	0.10302962131043915	0.1	)
(	3.86	0.10302962131043915	0.1	)
(	3.88	0.10302962131043915	0.1	)
(	3.9	0.10302962131043915	0.1	)
(	3.92	0.10302962131043915	0.1	)
(	3.94	0.10302962131043915	0.1	)
(	3.96	0.10302962131043915	0.1	)
(	3.98	0.10302962131043915	0.1	)
(	4.0	0.10302962131043915	0.1	)
)
	polyLine 3 2 ((	-1.0	0.5	0	)
(	-0.98	0.5	0	)
(	-0.96	0.5	0	)
(	-0.94	0.5	0	)
(	-0.92	0.5	0	)
(	-0.9	0.5	0	)
(	-0.88	0.5	0	)
(	-0.86	0.5	0	)
(	-0.84	0.5	0	)
(	-0.8200000000000001	0.5	0	)
(	-0.8	0.5	0	)
(	-0.78	0.5	0	)
(	-0.76	0.5	0	)
(	-0.74	0.5	0	)
(	-0.72	0.5	0	)
(	-0.7	0.5	0	)
(	-0.6799999999999999	0.5	0	)
(	-0.6599999999999999	0.5	0	)
(	-0.64	0.5	0	)
(	-0.62	0.5	0	)
(	-0.6	0.5	0	)
(	-0.5800000000000001	0.5	0	)
(	-0.56	0.5	0	)
(	-0.54	0.5	0	)
(	-0.52	0.5	0	)
(	-0.5	0.5	0	)
(	-0.48	0.5	0	)
(	-0.45999999999999996	0.5	0	)
(	-0.43999999999999995	0.5	0	)
(	-0.42000000000000004	0.5	0	)
(	-0.4	0.5	0	)
(	-0.38	0.5	0	)
(	-0.36	0.5	0	)
(	-0.33999999999999997	0.5	0	)
(	-0.31999999999999995	0.5	0	)
(	-0.29999999999999993	0.5	0	)
(	-0.28	0.5	0	)
(	-0.26	0.5	0	)
(	-0.24	0.5	0	)
(	-0.21999999999999997	0.5	0	)
(	-0.19999999999999996	0.5	0	)
(	-0.17999999999999994	0.5	0	)
(	-0.16000000000000003	0.5	0	)
(	-0.14	0.5	0	)
(	-0.12	0.5	0	)
(	-0.09999999999999998	0.5	0	)
(	-0.07957790192427062	0.499851353183656	0	)
(	-0.059155803848541265	0.5004308595912801	0	)
(	-0.038733705772811905	0.5017385192228725	0	)
(	-0.018311607697082552	0.5037743320784333	0	)
(	0.002110490378646801	0.5065382981579623	0	)
(	0.022532588454376168	0.5100304174614597	0	)
(	0.04295468653010551	0.5142506899889253	0	)
(	0.06337678460583487	0.5191991157403592	0	)
(	0.08379888268156424	0.5248756947157615	0	)
(	0.08379888268156424	0.5248756947157615	0	)
(	0.1005586592178771	0.5297120913475828	0	)
(	0.11731843575418995	0.5344733913084967	0	)
(	0.1340782122905028	0.5391475605154064	0	)
(	0.15083798882681565	0.543722785106319	0	)
(	0.16759776536312848	0.5481875012996275	0	)
(	0.18435754189944134	0.5525304246213195	0	)
(	0.2011173184357542	0.5567405784262426	0	)
(	0.21787709497206703	0.5608073216413377	0	)
(	0.2346368715083799	0.5647203756607232	0	)
(	0.25139664804469275	0.5684698503246488	0	)
(	0.2681564245810056	0.572046268916662	0	)
(	0.2849162011173184	0.5754405921158047	0	)
(	0.3016759776536313	0.5786442408433017	0	)
(	0.31843575418994413	0.5816491179459983	0	)
(	0.33519553072625696	0.5844476286617399	0	)
(	0.35195530726256985	0.5870326998149701	0	)
(	0.3687150837988827	0.5893977976940294	0	)
(	0.3854748603351955	0.5915369445649706	0	)
(	0.4022346368715084	0.593444733780153	0	)
(	0.41899441340782123	0.5951163434434272	0	)
(	0.43575418994413406	0.5965475485973746	0	)
(	0.4525139664804469	0.5977347319017953	0	)
(	0.4692737430167598	0.5986748927764582	0	)
(	0.4860335195530726	0.5993656549850034	0	)
(	0.5027932960893855	0.5998052726408267	0	)
(	0.5195530726256983	0.5999926346197724	0	)
(	0.5363128491620112	0.599927267368474	0	)
(	0.553072625698324	0.5996093361012514	0	)
(	0.5698324022346368	0.5990396443825345	0	)
(	0.5865921787709497	0.5982196320958717	0	)
(	0.6033519553072626	0.597151371804655	0	)
(	0.6201117318435754	0.5958375635137614	0	)
(	0.6368715083798883	0.5942815278453473	0	)
(	0.6536312849162011	0.5924871976460493	0	)
(	0.6703910614525139	0.5904591080467975	0	)
(	0.6871508379888268	0.5882023850003708	0	)
(	0.7039106145251397	0.5857227323256612	0	)
(	0.7206703910614525	0.5830264172913942	0	)
(	0.7374301675977654	0.5801202547757427	0	)
(	0.7541899441340782	0.5770115900418685	0	)
(	0.770949720670391	0.5737082801729287	0	)
(	0.7877094972067039	0.5702186742134663	0	)
(	0.8044692737430168	0.5665515920673808	0	)
(	0.8212290502793296	0.5627163022058106	0	)
(	0.8379888268156425	0.5587224982412716	0	)
(	0.8547486033519552	0.5545802744272613	0	)
(	0.8715083798882681	0.5503001001452493	0	)
(	0.888268156424581	0.5458927934435424	0	)
(	0.9050279329608938	0.5413694936948992	0	)
(	0.9217877094972067	0.5367416334420062	0	)
(	0.9385474860335196	0.5320209095019726	0	)
(	0.9553072625698323	0.5272192534028763	0	)
(	0.9720670391061452	0.5223488012270842	0	)
(	0.9888268156424581	0.517421862937565	0	)
(	1.005586592178771	0.5124508912647234	0	)
(	1.0223463687150838	0.5074484502323922	0	)
(	1.0391061452513966	0.5024271834025318	0	)
(	1.0558659217877095	0.497399781918901	0	)
(	1.0726256983240223	0.4923789524304637	0	)
(	1.089385474860335	0.48737738497560745	0	)
(	1.106145251396648	0.4824077209083447	0	)
(	1.1229050279329609	0.4774825209475633	0	)
(	1.1396648044692737	0.47261423343007924	0	)
(	1.1564245810055866	0.4678151628477342	0	)
(	1.1731843575418994	0.46309743874805714	0	)
(	1.1899441340782122	0.4584729850770941	0	)
(	1.2067039106145252	0.4539534900418916	0	)
(	1.223463687150838	0.44955037656880503	0	)
(	1.2402234636871508	0.4452747734322982	0	)
(	1.2569832402234637	0.4411374871272057	0	)
(	1.2737430167597765	0.43714897455555	0	)
(	1.2905027932960893	0.43331931659694684	0	)
(	1.3072625698324023	0.42965819262939875	0	)
(	1.324022346368715	0.4261748560648764	0	)
(	1.3407821229050279	0.4228781109615182	0	)
(	1.3575418994413408	0.419776289771564	0	)
(	1.3743016759776536	0.4168772322812608	0	)
(	1.3910614525139664	0.4141882657959719	0	)
(	1.4078212290502794	0.41171618662057086	0	)
(	1.4245810055865922	0.40946724288192704	0	)
(	1.441340782122905	0.4074471187368994	0	)
(	1.458100558659218	0.40566092000575277	0	)
(	1.4748603351955307	0.40411316126730684	0	)
(	1.4916201117318435	0.40280775444843575	0	)
(	1.5083798882681565	0.4017479989367567	0	)
(	1.5251396648044693	0.40093657324149934	0	)
(	1.541899441340782	0.4003755282236308	0	)
(	1.558659217877095	0.4000662819123495	0	)
(	1.5754189944134078	0.40000961592104617	0	)
(	1.5921787709497206	0.40020567347179337	0	)
(	1.6089385474860336	0.40065395903335455	0	)
(	1.6256983240223464	0.40135333957362834	0	)
(	1.6424581005586592	0.4023020474233635	0	)
(	1.659217877094972	0.4034976847439041	0	)
(	1.675977653631285	0.4049372295876755	0	)
(	1.6927374301675977	0.4066170435360916	0	)
(	1.7094972067039105	0.4085328808955797	0	)
(	1.7262569832402235	0.41067989942847916	0	)
(	1.7430167597765363	0.41305267259169304	0	)
(	1.759776536312849	0.4156452032521588	0	)
(	1.776536312849162	0.4184509388444732	0	)
(	1.7932960893854748	0.4214627879323597	0	)
(	1.8100558659217876	0.4246731381321215	0	)
(	1.8268156424581006	0.4280738753527769	0	)
(	1.8435754189944134	0.4316564043042497	0	)
(	1.8603351955307261	0.4354116702217798	0	)
(	1.8770949720670391	0.4393301817516459	0	)
(	1.893854748603352	0.44340203494035757	0	)
(	1.9106145251396647	0.4476169382666848	0	)
(	1.9273743016759777	0.4519642386532558	0	)
(	1.9441340782122905	0.4564329483919807	0	)