/*--------------------------------*- C++ -*----------------------------------*\\
/*--------------------------------*- C++ -*----------------------------------*\\
| =========                 |                                                 |
| \\\\      /  F ield         | OpenFOAM: The Open Source CFD Toolbox           |
|  \\\\    /   O peration     | Version:  v2012                                 |
|   \\\\  /    A nd           | Website:  www.openfoam.com                      |
|    \\\\/     M anipulation  |                                                 |
\\*---------------------------------------------------------------------------*/
FoamFile
{
    version     2.0;
    format      ascii;
    class       dictionary;
    object      blockMeshDict;
}
// * * * * * * * * * * * * * * * * * * * * * * * * * * * * * * * * * * * * * //

scale   0.01;

xmin -1;
xmax 5;
ymin 0;
ymax 0.5;
zmin 0;
zmax 0.1;

vertices
(
    (-1.00000000 0.22325516 0.00000000)
    (4.00000000 0.08476775 0.00000000)
    (4.00000000 0.58476775 0.00000000)
    (-1.00000000 0.72325516 0.00000000)
    (-1.00000000 0.22325516 0.10000000)
    (4.00000000 0.08476775 0.10000000)
    (4.00000000 0.58476775 0.10000000)
    (-1.00000000 0.72325516 0.10000000)
);

blocks
(
    hex (0 1 2 3 4 5 6 7) (200 20 1) simpleGrading (1 1 1)
);

edges
(
	polyLine 0 1
	(
		(-1.00000000 0.22325516 0.00000000)
		(-0.98000000 0.22325516 0.00000000)
		(-0.96000000 0.22325516 0.00000000)
		(-0.94000000 0.22325516 0.00000000)
		(-0.92000000 0.22325516 0.00000000)
		(-0.90000000 0.22325516 0.00000000)
		(-0.88000000 0.22325516 0.00000000)
		(-0.86000000 0.22325516 0.00000000)
		(-0.84000000 0.22325516 0.00000000)
		(-0.82000000 0.22325516 0.00000000)
		(-0.80000000 0.22325516 0.00000000)
		(-0.78000000 0.22325516 0.00000000)
		(-0.76000000 0.22325516 0.00000000)
		(-0.74000000 0.22325516 0.00000000)
		(-0.72000000 0.22325516 0.00000000)
		(-0.70000000 0.22325516 0.00000000)
		(-0.68000000 0.22325516 0.00000000)
		(-0.66000000 0.22325516 0.00000000)
		(-0.64000000 0.22325516 0.00000000)
		(-0.62000000 0.22325516 0.00000000)
		(-0.60000000 0.22325516 0.00000000)
		(-0.58000000 0.22325516 0.00000000)
		(-0.56000000 0.22325516 0.00000000)
		(-0.54000000 0.22325516 0.00000000)
		(-0.52000000 0.22325516 0.00000000)
		(-0.50000000 0.22325516 0.00000000)
		(-0.48000000 0.22325516 0.00000000)
		(-0.46000000 0.22325516 0.00000000)
		(-0.44000000 0.22325516 0.00000000)
		(-0.42000000 0.22325516 0.00000000)
		(-0.40000000 0.22325516 0.00000000)
		(-0.38000000 0.22325516 0.00000000)
		(-0.36000000 0.22325516 0.00000000)
		(-0.34000000 0.22325516 0.00000000)
		(-0.32000000 0.22325516 0.00000000)
		(-0.30000000 0.22325516 0.00000000)
		(-0.28000000 0.22325516 0.00000000)
		(-0.26000000 0.22325516 0.00000000)
		(-0.24000000 0.22325516 0.00000000)
		(-0.22000000 0.22325516 0.00000000)
		(-0.20000000 0.22325516 0.00000000)
		(-0.18000000 0.22325516 0.00000000)
		(-0.16000000 0.22325516 0.00000000)
		(-0.14000000 0.22325516 0.00000000)
		(-0.12000000 0.22325516 0.00000000)
		(-0.10000000 0.22325516 0.00000000)
		(-0.08162011 0.22349920 0.00000000)
		(-0.06324022 0.22423133 0.00000000)
		(-0.04486034 0.22545155 0.00000000)
		(-0.02648045 0.22715985 0.00000000)
		(-0.00810056 0.22935625 0.00000000)
		(0.01027933 0.23204072 0.00000000)
		(0.02865922 0.23521329 0.00000000)
		(0.04703911 0.23887394 0.00000000)
		(0.06541899 0.24302268 0.00000000)
		(0.08379888 0.24765950 0.00000000)
		(0.10055866 0.24937059 0.00000000)
		(0.11731844 0.24999687 0.00000000)
		(0.13407821 0.24953560 0.00000000)
		(0.15083799 0.24798881 0.00000000)
		(0.16759777 0.24536321 0.00000000)
		(0.18435754 0.24167022 0.00000000)
		(0.20111732 0.23692593 0.00000000)
		(0.21787709 0.23115095 0.00000000)
		(0.23463687 0.22437042 0.00000000)
		(0.25139665 0.21661383 0.00000000)
		(0.26815642 0.20791493 0.00000000)
		(0.28491620 0.19831155 0.00000000)
		(0.30167598 0.18784548 0.00000000)
		(0.31843575 0.17656224 0.00000000)
		(0.33519553 0.16451091 0.00000000)
		(0.35195531 0.15174393 0.00000000)
		(0.36871508 0.13831683 0.00000000)
		(0.38547486 0.12428802 0.00000000)
		(0.40223464 0.10971854 0.00000000)
		(0.41899441 0.09467175 0.00000000)
		(0.43575419 0.07921313 0.00000000)
		(0.45251397 0.06340991 0.00000000)
		(0.46927374 0.04733084 0.00000000)
		(0.48603352 0.03104588 0.00000000)
		(0.50279330 0.01462585 0.00000000)
		(0.51955307 -0.00185779 0.00000000)
		(0.53631285 -0.01833336 0.00000000)
		(0.55307263 -0.03472917 0.00000000)
		(0.56983240 -0.05097390 0.00000000)
		(0.58659218 -0.06699689 0.00000000)
		(0.60335196 -0.08272842 0.00000000)
		(0.62011173 -0.09810007 0.00000000)
		(0.63687151 -0.11304496 0.00000000)
		(0.65363128 -0.12749809 0.00000000)
		(0.67039106 -0.14139657 0.00000000)
		(0.68715084 -0.15467994 0.00000000)
		(0.70391061 -0.16729043 0.00000000)
		(0.72067039 -0.17917316 0.00000000)
		(0.73743017 -0.19027646 0.00000000)
		(0.75418994 -0.20055201 0.00000000)
		(0.77094972 -0.20995512 0.00000000)
		(0.78770950 -0.21844488 0.00000000)
		(0.80446927 -0.22598436 0.00000000)
		(0.82122905 -0.23254076 0.00000000)
		(0.83798883 -0.23808556 0.00000000)
		(0.85474860 -0.24259464 0.00000000)
		(0.87150838 -0.24604838 0.00000000)
		(0.88826816 -0.24843176 0.00000000)
		(0.90502793 -0.24973440 0.00000000)
		(0.92178771 -0.24995066 0.00000000)
		(0.93854749 -0.24907957 0.00000000)
		(0.95530726 -0.24712493 0.00000000)
		(0.97206704 -0.24409525 0.00000000)
		(0.98882682 -0.24000371 0.00000000)
		(1.00558659 -0.23486809 0.00000000)
		(1.02234637 -0.22871075 0.00000000)
		(1.03910615 -0.22155848 0.00000000)
		(1.05586592 -0.21344237 0.00000000)
		(1.07262570 -0.20439775 0.00000000)
		(1.08938547 -0.19446395 0.00000000)
		(1.10614525 -0.18368420 0.00000000)
		(1.12290503 -0.17210538 0.00000000)
		(1.13966480 -0.15977786 0.00000000)
		(1.15642458 -0.14675528 0.00000000)
		(1.17318436 -0.13309428 0.00000000)
		(1.18994413 -0.11885430 0.00000000)
		(1.20670391 -0.10409727 0.00000000)
		(1.22346369 -0.08888740 0.00000000)
		(1.24022346 -0.07329085 0.00000000)
		(1.25698324 -0.05737547 0.00000000)
		(1.27374302 -0.04121049 0.00000000)
		(1.29050279 -0.02486624 0.00000000)
		(1.30726257 -0.00841381 0.00000000)
		(1.32402235 0.00807521 0.00000000)
		(1.34078212 0.02452911 0.00000000)
		(1.35754190 0.04087630 0.00000000)
		(1.37430168 0.05704567 0.00000000)
		(1.39106145 0.07296688 0.00000000)
		(1.40782123 0.08857067 0.00000000)
		(1.42458101 0.10378915 0.00000000)
		(1.44134078 0.11855614 0.00000000)
		(1.45810056 0.13280738 0.00000000)
		(1.47486034 0.14648087 0.00000000)
		(1.49162011 0.15951715 0.00000000)
		(1.50837989 0.17185949 0.00000000)
		(1.52513966 0.18345421 0.00000000)
		(1.54189944 0.19425087 0.00000000)
		(1.55865922 0.20420249 0.00000000)
		(1.57541899 0.21326579 0.00000000)
		(1.59217877 0.22140133 0.00000000)
		(1.60893855 0.22857374 0.00000000)
		(1.62569832 0.23475180 0.00000000)
		(1.64245810 0.23990864 0.00000000)
		(1.65921788 0.24402183 0.00000000)
		(1.67597765 0.24707347 0.00000000)
		(1.69273743 0.24905029 0.00000000)
		(1.70949721 0.24994369 0.00000000)
		(1.72625698 0.24974979 0.00000000)
		(1.74301676 0.24846942 0.00000000)
		(1.75977654 0.24610815 0.00000000)
		(1.77653631 0.24267626 0.00000000)
		(1.79329609 0.23818868 0.00000000)
		(1.81005587 0.23266493 0.00000000)
		(1.82681564 0.22612904 0.00000000)
		(1.84357542 0.21860944 0.00000000)
		(1.86033520 0.21013884 0.00000000)
		(1.87709497 0.20075410 0.00000000)
		(1.89385475 0.19049603 0.00000000)
		(1.91061453 0.17940926 0.00000000)
		(1.92737430 0.16754203 0.00000000)
		(1.94413408 0.15494595 0.00000000)
		(1.96089385 0.14167583 0.00000000)
		(1.97765363 0.12778939 0.00000000)
		(1.99441341 0.11334703 0.00000000)
		(2.01117318 0.09841159 0.00000000)
		(2.02793296 0.08304805 0.00000000)
		(2.04469274 0.06732322 0.00000000)
		(2.06145251 0.05130553 0.00000000)
		(2.07821229 0.03506464 0.00000000)
		(2.09497207 0.01867122 0.00000000)
		(2.11173184 0.00219657 0.00000000)
		(2.12849162 -0.01428763 0.00000000)
		(2.14525140 -0.03070968 0.00000000)
		(2.16201117 -0.04699814 0.00000000)
		(2.17877095 -0.06308214 0.00000000)
		(2.19553073 -0.07889172 0.00000000)
		(2.21229050 -0.09435811 0.00000000)
		(2.22905028 -0.10941402 0.00000000)
		(2.24581006 -0.12399396 0.00000000)
		(2.26256983 -0.13803449 0.00000000)
		(2.27932961 -0.15147455 0.00000000)
		(2.29608939 -0.16425566 0.00000000)
		(2.31284916 -0.17632222 0.00000000)
		(2.32960894 -0.18762175 0.00000000)
		(2.34636872 -0.19810508 0.00000000)
		(2.36312849 -0.20772661 0.00000000)
		(2.37988827 -0.21644449 0.00000000)
		(2.39664804 -0.22422079 0.00000000)
		(2.41340782 -0.23102169 0.00000000)
		(2.43016760 -0.23681758 0.00000000)
		(2.44692737 -0.24158328 0.00000000)
		(2.46368715 -0.24529803 0.00000000)
		(2.48044693 -0.24794569 0.00000000)
		(2.49720670 -0.24951473 0.00000000)
		(2.51396648 -0.24999833 0.00000000)
		(2.53072626 -0.24939439 0.00000000)
		(2.54748603 -0.24770553 0.00000000)
		(2.56424581 -0.24493909 0.00000000)
		(2.58100559 -0.24110712 0.00000000)
		(2.59776536 -0.23622629 0.00000000)
		(2.61452514 -0.23031782 0.00000000)
		(2.63128492 -0.22340741 0.00000000)
		(2.64804469 -0.21552514 0.00000000)
		(2.66480447 -0.20670529 0.00000000)
		(2.68156425 -0.19698623 0.00000000)
		(2.69832402 -0.18641024 0.00000000)
		(2.71508380 -0.17502332 0.00000000)
		(2.73184358 -0.16287502 0.00000000)
		(2.74860335 -0.15001817 0.00000000)
		(2.76536313 -0.13650872 0.00000000)
		(2.78212291 -0.12240542 0.00000000)
		(2.79888268 -0.10776963 0.00000000)
		(2.81564246 -0.09266503 0.00000000)
		(2.83240223 -0.07715731 0.00000000)
		(2.84916201 -0.06131394 0.00000000)
		(2.86592179 -0.04520384 0.00000000)
		(2.88268156 -0.02889709 0.00000000)
		(2.89944134 -0.01246464 0.00000000)
		(2.91620112 0.00402203 0.00000000)
		(2.93296089 0.02049121 0.00000000)
		(2.95166480 0.03270376 0.00000000)
		(2.97036872 0.04363077 0.00000000)
		(2.98907263 0.05327225 0.00000000)
		(3.00777654 0.06162820 0.00000000)
		(3.02648045 0.06869862 0.00000000)
		(3.04518436 0.07448351 0.00000000)
		(3.06388827 0.07898286 0.00000000)
		(3.08259218 0.08219669 0.00000000)
		(3.10129609 0.08412499 0.00000000)
		(3.12000000 0.08476775 0.00000000)
		(3.14000000 0.08476775 0.00000000)
		(3.16000000 0.08476775 0.00000000)
		(3.18000000 0.08476775 0.00000000)
		(3.20000000 0.08476775 0.00000000)
		(3.22000000 0.08476775 0.00000000)
		(3.24000000 0.08476775 0.00000000)
		(3.26000000 0.08476775 0.00000000)
		(3.28000000 0.08476775 0.00000000)
		(3.30000000 0.08476775 0.00000000)
		(3.32000000 0.08476775 0.00000000)
		(3.34000000 0.08476775 0.00000000)
		(3.36000000 0.08476775 0.00000000)
		(3.38000000 0.08476775 0.00000000)
		(3.40000000 0.08476775 0.00000000)
		(3.42000000 0.08476775 0.00000000)
		(3.44000000 0.08476775 0.00000000)
		(3.46000000 0.08476775 0.00000000)
		(3.48000000 0.08476775 0.00000000)
		(3.50000000 0.08476775 0.00000000)
		(3.52000000 0.08476775 0.00000000)
		(3.54000000 0.08476775 0.00000000)
		(3.56000000 0.08476775 0.00000000)
		(3.58000000 0.08476775 0.00000000)
		(3.60000000 0.08476775 0.00000000)
		(3.62000000 0.08476775 0.00000000)
		(3.64000000 0.08476775 0.00000000)
		(3.66000000 0.08476775 0.00000000)
		(3.68000000 0.08476775 0.00000000)
		(3.70000000 0.08476775 0.00000000)
		(3.72000000 0.08476775 0.00000000)
		(3.74000000 0.08476775 0.00000000)
		(3.76000000 0.08476775 0.00000000)
		(3.78000000 0.08476775 0.00000000)
		(3.80000000 0.08476775 0.00000000)
		(3.82000000 0.08476775 0.00000000)
		(3.84000000 0.08476775 0.00000000)
		(3.86000000 0.08476775 0.00000000)
		(3.88000000 0.08476775 0.00000000)
		(3.90000000 0.08476775 0.00000000)
		(3.92000000 0.08476775 0.00000000)
		(3.94000000 0.08476775 0.00000000)
		(3.96000000 0.08476775 0.00000000)
		(3.98000000 0.08476775 0.00000000)
		(4.00000000 0.08476775 0.00000000)
	)
	polyLine 4 5
	(
		(-1.00000000 0.22325516 0.10000000)
		(-0.98000000 0.22325516 0.10000000)
		(-0.96000000 0.22325516 0.10000000)
		(-0.94000000 0.22325516 0.10000000)
		(-0.92000000 0.22325516 0.10000000)
		(-0.90000000 0.22325516 0.10000000)
		(-0.88000000 0.22325516 0.10000000)
		(-0.86000000 0.22325516 0.10000000)
		(-0.84000000 0.22325516 0.10000000)
		(-0.82000000 0.22325516 0.10000000)
		(-0.80000000 0.22325516 0.10000000)
		(-0.78000000 0.22325516 0.10000000)
		(-0.76000000 0.22325516 0.10000000)
		(-0.74000000 0.22325516 0.10000000)
		(-0.72000000 0.22325516 0.10000000)
		(-0.70000000 0.22325516 0.10000000)
		(-0.68000000 0.22325516 0.10000000)
		(-0.66000000 0.22325516 0.10000000)
		(-0.64000000 0.22325516 0.10000000)
		(-0.62000000 0.22325516 0.10000000)
		(-0.60000000 0.22325516 0.10000000)
		(-0.58000000 0.22325516 0.10000000)
		(-0.56000000 0.22325516 0.10000000)
		(-0.54000000 0.22325516 0.10000000)
		(-0.52000000 0.22325516 0.10000000)
		(-0.50000000 0.22325516 0.10000000)
		(-0.48000000 0.22325516 0.10000000)
		(-0.46000000 0.22325516 0.10000000)
		(-0.44000000 0.22325516 0.10000000)
		(-0.42000000 0.22325516 0.10000000)
		(-0.40000000 0.22325516 0.10000000)
		(-0.38000000 0.22325516 0.10000000)
		(-0.36000000 0.22325516 0.10000000)
		(-0.34000000 0.22325516 0.10000000)
		(-0.32000000 0.22325516 0.10000000)
		(-0.30000000 0.22325516 0.10000000)
		(-0.28000000 0.22325516 0.10000000)
		(-0.26000000 0.22325516 0.10000000)
		(-0.24000000 0.22325516 0.10000000)
		(-0.22000000 0.22325516 0.10000000)
		(-0.20000000 0.22325516 0.10000000)
		(-0.18000000 0.22325516 0.10000000)
		(-0.16000000 0.22325516 0.10000000)
		(-0.14000000 0.22325516 0.10000000)
		(-0.12000000 0.22325516 0.10000000)
		(-0.10000000 0.22325516 0.10000000)
		(-0.08162011 0.22349920 0.10000000)
		(-0.06324022 0.22423133 0.10000000)
		(-0.04486034 0.22545155 0.10000000)
		(-0.02648045 0.22715985 0.10000000)
		(-0.00810056 0.22935625 0.10000000)
		(0.01027933 0.23204072 0.10000000)
		(0.02865922 0.23521329 0.10000000)
		(0.04703911 0.23887394 0.10000000)
		(0.06541899 0.24302268 0.10000000)
		(0.08379888 0.24765950 0.10000000)
		(0.10055866 0.24937059 0.10000000)
		(0.11731844 0.24999687 0.10000000)
		(0.13407821 0.24953560 0.10000000)
		(0.15083799 0.24798881 0.10000000)
		(0.16759777 0.24536321 0.10000000)
		(0.18435754 0.24167022 0.10000000)
		(0.20111732 0.23692593 0.10000000)
		(0.21787709 0.23115095 0.10000000)
		(0.23463687 0.22437042 0.10000000)
		(0.25139665 0.21661383 0.10000000)
		(0.26815642 0.20791493 0.10000000)
		(0.28491620 0.19831155 0.10000000)
		(0.30167598 0.18784548 0.10000000)
		(0.31843575 0.17656224 0.10000000)
		(0.33519553 0.16451091 0.10000000)
		(0.35195531 0.15174393 0.10000000)
		(0.36871508 0.13831683 0.10000000)
		(0.38547486 0.12428802 0.10000000)
		(0.40223464 0.10971854 0.10000000)
		(0.41899441 0.09467175 0.10000000)
		(0.43575419 0.07921313 0.10000000)
		(0.45251397 0.06340991 0.10000000)
		(0.46927374 0.04733084 0.10000000)
		(0.48603352 0.03104588 0.10000000)
		(0.50279330 0.01462585 0.10000000)
		(0.51955307 -0.00185779 0.10000000)
		(0.53631285 -0.01833336 0.10000000)
		(0.55307263 -0.03472917 0.10000000)
		(0.56983240 -0.05097390 0.10000000)
		(0.58659218 -0.06699689 0.10000000)
		(0.60335196 -0.08272842 0.10000000)
		(0.62011173 -0.09810007 0.10000000)
		(0.63687151 -0.11304496 0.10000000)
		(0.65363128 -0.12749809 0.10000000)
		(0.67039106 -0.14139657 0.10000000)
		(0.68715084 -0.15467994 0.10000000)
		(0.70391061 -0.16729043 0.10000000)
		(0.72067039 -0.17917316 0.10000000)
		(0.73743017 -0.19027646 0.10000000)
		(0.75418994 -0.20055201 0.10000000)
		(0.77094972 -0.20995512 0.10000000)
		(0.78770950 -0.21844488 0.10000000)
		(0.80446927 -0.22598436 0.10000000)
		(0.82122905 -0.23254076 0.10000000)
		(0.83798883 -0.23808556 0.10000000)
		(0.85474860 -0.24259464 0.10000000)
		(0.87150838 -0.24604838 0.10000000)
		(0.88826816 -0.24843176 0.10000000)
		(0.90502793 -0.24973440 0.10000000)
		(0.92178771 -0.24995066 0.10000000)
		(0.93854749 -0.24907957 0.10000000)
		(0.95530726 -0.24712493 0.10000000)
		(0.97206704 -0.24409525 0.10000000)
		(0.98882682 -0.24000371 0.10000000)
		(1.00558659 -0.23486809 0.10000000)
		(1.02234637 -0.22871075 0.10000000)
		(1.03910615 -0.22155848 0.10000000)
		(1.05586592 -0.21344237 0.10000000)
		(1.07262570 -0.20439775 0.10000000)
		(1.08938547 -0.19446395 0.10000000)
		(1.10614525 -0.18368420 0.10000000)
		(1.12290503 -0.17210538 0.10000000)
		(1.13966480 -0.15977786 0.10000000)
		(1.15642458 -0.14675528 0.10000000)
		(1.17318436 -0.13309428 0.10000000)
		(1.18994413 -0.11885430 0.10000000)
		(1.20670391 -0.10409727 0.10000000)
		(1.22346369 -0.08888740 0.10000000)
		(1.24022346 -0.07329085 0.10000000)
		(1.25698324 -0.05737547 0.10000000)
		(1.27374302 -0.04121049 0.10000000)
		(1.29050279 -0.02486624 0.10000000)
		(1.30726257 -0.00841381 0.10000000)
		(1.32402235 0.00807521 0.10000000)
		(1.34078212 0.02452911 0.10000000)
		(1.35754190 0.04087630 0.10000000)
		(1.37430168 0.05704567 0.10000000)
		(1.39106145 0.07296688 0.10000000)
		(1.40782123 0.08857067 0.10000000)
		(1.42458101 0.10378915 0.10000000)
		(1.44134078 0.11855614 0.10000000)
		(1.45810056 0.13280738 0.10000000)
		(1.47486034 0.14648087 0.10000000)
		(1.49162011 0.15951715 0.10000000)
		(1.50837989 0.17185949 0.10000000)
		(1.52513966 0.18345421 0.10000000)
		(1.54189944 0.19425087 0.10000000)
		(1.55865922 0.20420249 0.10000000)
		(1.57541899 0.21326579 0.10000000)
		(1.59217877 0.22140133 0.10000000)
		(1.60893855 0.22857374 0.10000000)
		(1.62569832 0.23475180 0.10000000)
		(1.64245810 0.23990864 0.10000000)
		(1.65921788 0.24402183 0.10000000)
		(1.67597765 0.24707347 0.10000000)
		(1.69273743 0.24905029 0.10000000)
		(1.70949721 0.24994369 0.10000000)
		(1.72625698 0.24974979 0.10000000)
		(1.74301676 0.24846942 0.10000000)
		(1.75977654 0.24610815 0.10000000)
		(1.77653631 0.24267626 0.10000000)
		(1.79329609 0.23818868 0.10000000)
		(1.81005587 0.23266493 0.10000000)
		(1.82681564 0.22612904 0.10000000)
		(1.84357542 0.21860944 0.10000000)
		(1.86033520 0.21013884 0.10000000)
		(1.87709497 0.20075410 0.10000000)
		(1.89385475 0.19049603 0.10000000)
		(1.91061453 0.17940926 0.10000000)
		(1.92737430 0.16754203 0.10000000)
		(1.94413408 0.15494595 0.10000000)
		(1.96089385 0.14167583 0.10000000)
		(1.97765363 0.12778939 0.10000000)
		(1.99441341 0.11334703 0.10000000)
		(2.01117318 0.09841159 0.10000000)
		(2.02793296 0.08304805 0.10000000)
		(2.04469274 0.06732322 0.10000000)
		(2.06145251 0.05130553 0.10000000)
		(2.07821229 0.03506464 0.10000000)
		(2.09497207 0.01867122 0.10000000)
		(2.11173184 0.00219657 0.10000000)
		(2.12849162 -0.01428763 0.10000000)
		(2.14525140 -0.03070968 0.10000000)
		(2.16201117 -0.04699814 0.10000000)
		(2.17877095 -0.06308214 0.10000000)
		(2.19553073 -0.07889172 0.10000000)
		(2.21229050 -0.09435811 0.10000000)
		(2.22905028 -0.10941402 0.10000000)
		(2.24581006 -0.12399396 0.10000000)
		(2.26256983 -0.13803449 0.10000000)
		(2.27932961 -0.15147455 0.10000000)
		(2.29608939 -0.16425566 0.10000000)
		(2.31284916 -0.17632222 0.10000000)
		(2.32960894 -0.18762175 0.10000000)
		(2.34636872 -0.19810508 0.10000000)
		(2.36312849 -0.20772661 0.10000000)
		(2.37988827 -0.21644449 0.10000000)
		(2.39664804 -0.22422079 0.10000000)
		(2.41340782 -0.23102169 0.10000000)
		(2.43016760 -0.23681758 0.10000000)
		(2.44692737 -0.24158328 0.10000000)
		(2.46368715 -0.24529803 0.10000000)
		(2.48044693 -0.24794569 0.10000000)
		(2.49720670 -0.24951473 0.10000000)
		(2.51396648 -0.24999833 0.10000000)
		(2.53072626 -0.24939439 0.10000000)
		(2.54748603 -0.24770553 0.10000000)
		(2.56424581 -0.24493909 0.10000000)
		(2.58100559 -0.24110712 0.10000000)
		(2.59776536 -0.23622629 0.10000000)
		(2.61452514 -0.23031782 0.10000000)
		(2.63128492 -0.22340741 0.10000000)
		(2.64804469 -0.21552514 0.10000000)
		(2.66480447 -0.20670529 0.10000000)
		(2.68156425 -0.19698623 0.10000000)
		(2.69832402 -0.18641024 0.10000000)
		(2.71508380 -0.17502332 0.10000000)
		(2.73184358 -0.16287502 0.10000000)
		(2.74860335 -0.15001817 0.10000000)
		(2.76536313 -0.13650872 0.10000000)
		(2.78212291 -0.12240542 0.10000000)
		(2.79888268 -0.10776963 0.10000000)
		(2.81564246 -0.09266503 0.10000000)
		(2.83240223 -0.07715731 0.10000000)
		(2.84916201 -0.06131394 0.10000000)
		(2.86592179 -0.04520384 0.10000000)
		(2.88268156 -0.02889709 0.10000000)
		(2.89944134 -0.01246464 0.10000000)
		(2.91620112 0.00402203 0.10000000)
		(2.93296089 0.02049121 0.10000000)
		(2.95166480 0.03270376 0.10000000)
		(2.97036872 0.04363077 0.10000000)
		(2.98907263 0.05327225 0.10000000)
		(3.00777654 0.06162820 0.10000000)
		(3.02648045 0.06869862 0.10000000)
		(3.04518436 0.07448351 0.10000000)
		(3.06388827 0.07898286 0.10000000)
		(3.08259218 0.08219669 0.10000000)
		(3.10129609 0.08412499 0.10000000)
		(3.12000000 0.08476775 0.10000000)
		(3.14000000 0.08476775 0.10000000)
		(3.16000000 0.08476775 0.10000000)
		(3.18000000 0.08476775 0.10000000)
		(3.20000000 0.08476775 0.10000000)
		(3.22000000 0.08476775 0.10000000)
		(3.24000000 0.08476775 0.10000000)
		(3.26000000 0.08476775 0.10000000)
		(3.28000000 0.08476775 0.10000000)
		(3.30000000 0.08476775 0.10000000)
		(3.32000000 0.08476775 0.10000000)
		(3.34000000 0.08476775 0.10000000)
		(3.36000000 0.08476775 0.10000000)
		(3.38000000 0.08476775 0.10000000)
		(3.40000000 0.08476775 0.10000000)
		(3.42000000 0.08476775 0.10000000)
		(3.44000000 0.08476775 0.10000000)
		(3.46000000 0.08476775 0.10000000)
		(3.48000000 0.08476775 0.10000000)
		(3.50000000 0.08476775 0.10000000)
		(3.52000000 0.08476775 0.10000000)
		(3.54000000 0.08476775 0.10000000)
		(3.56000000 0.08476775 0.10000000)
		(3.58000000 0.08476775 0.10000000)
		(3.60000000 0.08476775 0.10000000)
		(3.62000000 0.08476775 0.10000000)
		(3.64000000 0.08476775 0.10000000)
		(3.66000000 0.08476775 0.10000000)
		(3.68000000 0.08476775 0.10000000)
		(3.70000000 0.08476775 0.10000000)
		(3.72000000 0.08476775 0.10000000)
		(3.74000000 0.08476775 0.10000000)
		(3.76000000 0.08476775 0.10000000)
		(3.78000000 0.08476775 0.10000000)
		(3.80000000 0.08476775 0.10000000)
		(3.82000000 0.08476775 0.10000000)
		(3.84000000 0.08476775 0.10000000)
		(3.86000000 0.08476775 0.10000000)
		(3.88000000 0.08476775 0.10000000)
		(3.90000000 0.08476775 0.10000000)
		(3.92000000 0.08476775 0.10000000)
		(3.94000000 0.08476775 0.10000000)
		(3.96000000 0.08476775 0.10000000)
		(3.98000000 0.08476775 0.10000000)
		(4.00000000 0.08476775 0.10000000)
	)
	polyLine 3 2
	(
		(-1.00000000 0.72325516 0.00000000)
		(-0.98000000 0.72366854 0.00000000)
		(-0.96000000 0.72408192 0.00000000)
		(-0.94000000 0.72449531 0.00000000)
		(-0.92000000 0.72490869 0.00000000)
		(-0.90000000 0.72532207 0.00000000)
		(-0.88000000 0.72573545 0.00000000)
		(-0.86000000 0.72614884 0.00000000)
		(-0.84000000 0.72656222 0.00000000)
		(-0.82000000 0.72697560 0.00000000)
		(-0.80000000 0.72738899 0.00000000)
		(-0.78000000 0.72780237 0.00000000)
		(-0.76000000 0.72821575 0.00000000)
		(-0.74000000 0.72862913 0.00000000)
		(-0.72000000 0.72904252 0.00000000)
		(-0.70000000 0.72945590 0.00000000)
		(-0.68000000 0.72986928 0.00000000)
		(-0.66000000 0.73028266 0.00000000)
		(-0.64000000 0.73069605 0.00000000)
		(-0.62000000 0.73110943 0.00000000)
		(-0.60000000 0.73152281 0.00000000)
		(-0.58000000 0.73193619 0.00000000)
		(-0.56000000 0.73234958 0.00000000)
		(-0.54000000 0.73276296 0.00000000)
		(-0.52000000 0.73317634 0.00000000)
		(-0.50000000 0.73358972 0.00000000)
		(-0.48000000 0.73400311 0.00000000)
		(-0.46000000 0.73441649 0.00000000)
		(-0.44000000 0.73482987 0.00000000)
		(-0.42000000 0.73524326 0.00000000)
		(-0.40000000 0.73565664 0.00000000)
		(-0.38000000 0.73607002 0.00000000)
		(-0.36000000 0.73648340 0.00000000)
		(-0.34000000 0.73689679 0.00000000)
		(-0.32000000 0.73731017 0.00000000)
		(-0.30000000 0.73772355 0.00000000)
		(-0.28000000 0.73813693 0.00000000)
		(-0.26000000 0.73855032 0.00000000)
		(-0.24000000 0.73896370 0.00000000)
		(-0.22000000 0.73937708 0.00000000)
		(-0.20000000 0.73979046 0.00000000)
		(-0.18000000 0.74020385 0.00000000)
		(-0.16000000 0.74061723 0.00000000)
		(-0.14000000 0.74103061 0.00000000)
		(-0.12000000 0.74144399 0.00000000)
		(-0.10000000 0.74185738 0.00000000)
		(-0.08162011 0.74196805 0.00000000)
		(-0.06324022 0.74268241 0.00000000)
		(-0.04486034 0.74400043 0.00000000)
		(-0.02648045 0.74592213 0.00000000)
		(-0.00810056 0.74844750 0.00000000)
		(0.01027933 0.75157654 0.00000000)
		(0.02865922 0.75530925 0.00000000)
		(0.04703911 0.75964564 0.00000000)
		(0.06541899 0.76458570 0.00000000)
		(0.08379888 0.77012944 0.00000000)
		(0.10055866 0.77199577 0.00000000)
		(0.11731844 0.77267887 0.00000000)
		(0.13407821 0.77217575 0.00000000)
		(0.15083799 0.77048862 0.00000000)
		(0.16759777 0.76762480 0.00000000)
		(0.18435754 0.76359676 0.00000000)
		(0.20111732 0.75842201 0.00000000)
		(0.21787709 0.75212308 0.00000000)
		(0.23463687 0.74472736 0.00000000)
		(0.25139665 0.73626702 0.00000000)
		(0.26815642 0.72677887 0.00000000)
		(0.28491620 0.71630419 0.00000000)
		(0.30167598 0.70488854 0.00000000)
		(0.31843575 0.69258158 0.00000000)
		(0.33519553 0.67943684 0.00000000)
		(0.35195531 0.66551153 0.00000000)
		(0.36871508 0.65086620 0.00000000)
		(0.38547486 0.63556457 0.00000000)
		(0.40223464 0.61967321 0.00000000)
		(0.41899441 0.60326124 0.00000000)
		(0.43575419 0.58640007 0.00000000)
		(0.45251397 0.56916303 0.00000000)
		(0.46927374 0.55162513 0.00000000)
		(0.48603352 0.53386264 0.00000000)
		(0.50279330 0.51595285 0.00000000)
		(0.51955307 0.49797365 0.00000000)
		(0.53631285 0.48000327 0.00000000)
		(0.55307263 0.46211988 0.00000000)
		(0.56983240 0.44440128 0.00000000)
		(0.58659218 0.42692454 0.00000000)
		(0.60335196 0.40976570 0.00000000)
		(0.62011173 0.39299940 0.00000000)
		(0.63687151 0.37669857 0.00000000)
		(0.65363128 0.36093412 0.00000000)
		(0.67039106 0.34577465 0.00000000)
		(0.68715084 0.33128608 0.00000000)
		(0.70391061 0.31753146 0.00000000)
		(0.72067039 0.30457061 0.00000000)
		(0.73743017 0.29245992 0.00000000)
		(0.75418994 0.28125208 0.00000000)
		(0.77094972 0.27099583 0.00000000)
		(0.78770950 0.26173580 0.00000000)
		(0.80446927 0.25351227 0.00000000)
		(0.82122905 0.24636101 0.00000000)
		(0.83798883 0.24031314 0.00000000)
		(0.85474860 0.23539496 0.00000000)
		(0.87150838 0.23162786 0.00000000)
		(0.88826816 0.22902824 0.00000000)
		(0.90502793 0.22760741 0.00000000)
		(0.92178771 0.22737154 0.00000000)
		(0.93854749 0.22832166 0.00000000)
		(0.95530726 0.23045363 0.00000000)
		(0.97206704 0.23375820 0.00000000)
		(0.98882682 0.23822096 0.00000000)
		(1.00558659 0.24382253 0.00000000)
		(1.02234637 0.25053852 0.00000000)
		(1.03910615 0.25833971 0.00000000)
		(1.05586592 0.26719218 0.00000000)
		(1.07262570 0.27705742 0.00000000)
		(1.08938547 0.28789250 0.00000000)
		(1.10614525 0.29965029 0.00000000)
		(1.12290503 0.31227965 0.00000000)
		(1.13966480 0.32572563 0.00000000)
		(1.15642458 0.33992974 0.00000000)
		(1.17318436 0.35483019 0.00000000)
		(1.18994413 0.37036215 0.00000000)
		(1.20670391 0.38645807 0.00000000)
		(1.22346369 0.40304792 0.00000000)
		(1.24022346 0.42005954 0.00000000)
		(1.25698324 0.43741891 0.00000000)
		(1.27374302 0.45505052 0.00000000)
		(1.29050279 0.47287767 0.00000000)
		(1.30726257 0.49082281 0.00000000)
		(1.32402235 0.50880787 0.00000000)
		(1.34078212 0.52675461 0.00000000)
		(1.35754190 0.54458497 0.00000000)
		(1.37430168 0.56222137 0.00000000)
		(1.39106145 0.57958710 0.00000000)
		(1.40782123 0.59660661 0.00000000)
		(1.42458101 0.61320585 0.00000000)
		(1.44134078 0.62931263 0.00000000)
		(1.45810056 0.64485687 0.00000000)
		(1.47486034 0.65977096 0.00000000)
		(1.49162011 0.67399000 0.00000000)
		(1.50837989 0.68745216 0.00000000)
		(1.52513966 0.70009885 0.00000000)
		(1.54189944 0.71187508 0.00000000)
		(1.55865922 0.72272960 0.00000000)
		(1.57541899 0.73261521 0.00000000)
		(1.59217877 0.74148889 0.00000000)
		(1.60893855 0.74931204 0.00000000)
		(1.62569832 0.75605063 0.00000000)
		(1.64245810 0.76167535 0.00000000)
		(1.65921788 0.76616172 0.00000000)
		(1.67597765 0.76949024 0.00000000)
		(1.69273743 0.77164641 0.00000000)
		(1.70949721 0.77262087 0.00000000)
		(1.72625698 0.77240937 0.00000000)
		(1.74301676 0.77101283 0.00000000)
		(1.75977654 0.76843733 0.00000000)
		(1.77653631 0.76469407 0.00000000)
		(1.79329609 0.75979934 0.00000000)
		(1.81005587 0.75377442 0.00000000)
		(1.82681564 0.74664554 0.00000000)
		(1.84357542 0.73844369 0.00000000)
		(1.86033520 0.72920456 0.00000000)
		(1.87709497 0.71896835 0.00000000)
		(1.89385475 0.70777957 0.00000000)
		(1.91061453 0.69568691 0.00000000)
		(1.92737430 0.68274298 0.00000000)
		(1.94413408 0.66900407 0.00000000)
		(1.96089385 0.65452996 0.00000000)
		(1.97765363 0.63938361 0.00000000)
		(1.99441341 0.62363091 0.00000000)
		(2.01117318 0.60734039 0.00000000)
		(2.02793296 0.59058292 0.00000000)
		(2.04469274 0.57343140 0.00000000)
		(2.06145251 0.55596043 0.00000000)
		(2.07821229 0.53824603 0.00000000)
		(2.09497207 0.52036524 0.00000000)
		(2.11173184 0.50239586 0.00000000)
		(2.12849162 0.48441606 0.00000000)
		(2.14525140 0.46650406 0.00000000)
		(2.16201117 0.44873776 0.00000000)
		(2.17877095 0.43119447 0.00000000)
		(2.19553073 0.41395050 0.00000000)
		(2.21229050 0.39708086 0.00000000)
		(2.22905028 0.38065894 0.00000000)
		(2.24581006 0.36475618 0.00000000)
		(2.26256983 0.34944176 0.00000000)
		(2.27932961 0.33478230 0.00000000)
		(2.29608939 0.32084157 0.00000000)
		(2.31284916 0.30768021 0.00000000)
		(2.32960894 0.29535549 0.00000000)
		(2.34636872 0.28392101 0.00000000)
		(2.36312849 0.27342653 0.00000000)
		(2.37988827 0.26391768 0.00000000)
		(2.39664804 0.25543585 0.00000000)
		(2.41340782 0.24801792 0.00000000)
		(2.43016760 0.24169616 0.00000000)
		(2.44692737 0.23649808 0.00000000)
		(2.46368715 0.23244629 0.00000000)
		(2.48044693 0.22955841 0.00000000)
		(2.49720670 0.22784701 0.00000000)
		(2.51396648 0.22731953 0.00000000)
		(2.53072626 0.22797827 0.00000000)
		(2.54748603 0.22982036 0.00000000)
		(2.56424581 0.23283779 0.00000000)