/*--------------------------------*- C++ -*----------------------------------*\\
/*--------------------------------*- C++ -*----------------------------------*\\
| =========                 |                                                 |
| \\\\      /  F ield         | OpenFOAM: The Open Source CFD Toolbox           |
|  \\\\    /   O peration     | Version:  v2012                                 |
|   \\\\  /    A nd           | Website:  www.openfoam.com                      |
|    \\\\/     M anipulation  |                                                 |
\\*---------------------------------------------------------------------------*/
FoamFile
{
    version     2.0;
    format      ascii;
    class       dictionary;
    object      blockMeshDict;
}
// * * * * * * * * * * * * * * * * * * * * * * * * * * * * * * * * * * * * * //

scale   0.01;

xmin -1;
xmax 5;
ymin 0;
ymax 0.5;
zmin 0;
zmax 0.1;

vertices
(
    (-1.00000000 -0.19566646 0.00000000)
    (4.00000000 0.23480837 0.00000000)
    (4.00000000 0.73480837 0.00000000)
    (-1.00000000 0.30433354 0.00000000)
    (-1.00000000 -0.19566646 0.10000000)
    (4.00000000 0.23480837 0.10000000)
    (4.00000000 0.73480837 0.10000000)
    (-1.00000000 0.30433354 0.10000000)
);

blocks
(
    hex (0 1 2 3 4 5 6 7) (200 20 1) simpleGrading (1 1 1)
);

edges
(
	polyLine 0 1
	(
		(-1.00000000 -0.19566646 0.00000000)
		(-0.98000000 -0.19566646 0.00000000)
		(-0.96000000 -0.19566646 0.00000000)
		(-0.94000000 -0.19566646 0.00000000)
		(-0.92000000 -0.19566646 0.00000000)
		(-0.90000000 -0.19566646 0.00000000)
		(-0.88000000 -0.19566646 0.00000000)
		(-0.86000000 -0.19566646 0.00000000)
		(-0.84000000 -0.19566646 0.00000000)
		(-0.82000000 -0.19566646 0.00000000)
		(-0.80000000 -0.19566646 0.00000000)
		(-0.78000000 -0.19566646 0.00000000)
		(-0.76000000 -0.19566646 0.00000000)
		(-0.74000000 -0.19566646 0.00000000)
		(-0.72000000 -0.19566646 0.00000000)
		(-0.70000000 -0.19566646 0.00000000)
		(-0.68000000 -0.19566646 0.00000000)
		(-0.66000000 -0.19566646 0.00000000)
		(-0.64000000 -0.19566646 0.00000000)
		(-0.62000000 -0.19566646 0.00000000)
		(-0.60000000 -0.19566646 0.00000000)
		(-0.58000000 -0.19566646 0.00000000)
		(-0.56000000 -0.19566646 0.00000000)
		(-0.54000000 -0.19566646 0.00000000)
		(-0.52000000 -0.19566646 0.00000000)
		(-0.50000000 -0.19566646 0.00000000)
		(-0.48000000 -0.19566646 0.00000000)
		(-0.46000000 -0.19566646 0.00000000)
		(-0.44000000 -0.19566646 0.00000000)
		(-0.42000000 -0.19566646 0.00000000)
		(-0.40000000 -0.19566646 0.00000000)
		(-0.38000000 -0.19566646 0.00000000)
		(-0.36000000 -0.19566646 0.00000000)
		(-0.34000000 -0.19566646 0.00000000)
		(-0.32000000 -0.19566646 0.00000000)
		(-0.30000000 -0.19566646 0.00000000)
		(-0.28000000 -0.19566646 0.00000000)
		(-0.26000000 -0.19566646 0.00000000)
		(-0.24000000 -0.19566646 0.00000000)
		(-0.22000000 -0.19566646 0.00000000)
		(-0.20000000 -0.19566646 0.00000000)
		(-0.18000000 -0.19566646 0.00000000)
		(-0.16000000 -0.19566646 0.00000000)
		(-0.14000000 -0.19566646 0.00000000)
		(-0.12000000 -0.19566646 0.00000000)
		(-0.10000000 -0.19566646 0.00000000)
		(-0.08162011 -0.19615769 0.00000000)
		(-0.06324022 -0.19763136 0.00000000)
		(-0.04486034 -0.20008748 0.00000000)
		(-0.02648045 -0.20352606 0.00000000)
		(-0.00810056 -0.20794708 0.00000000)
		(0.01027933 -0.21335055 0.00000000)
		(0.02865922 -0.21973647 0.00000000)
		(0.04703911 -0.22710484 0.00000000)
		(0.06541899 -0.23545565 0.00000000)
		(0.08379888 -0.24478892 0.00000000)
		(0.10055866 -0.24845954 0.00000000)
		(0.11731844 -0.24996126 0.00000000)
		(0.13407821 -0.24928099 0.00000000)
		(0.15083799 -0.24642466 0.00000000)
		(0.16759777 -0.24141721 0.00000000)
		(0.18435754 -0.23430234 0.00000000)
		(0.20111732 -0.22514216 0.00000000)
		(0.21787709 -0.21401665 0.00000000)
		(0.23463687 -0.20102291 0.00000000)
		(0.25139665 -0.18627437 0.00000000)
		(0.26815642 -0.16989978 0.00000000)
		(0.28491620 -0.15204207 0.00000000)
		(0.30167598 -0.13285714 0.00000000)
		(0.31843575 -0.11251245 0.00000000)
		(0.33519553 -0.09118561 0.00000000)
		(0.35195531 -0.06906277 0.00000000)
		(0.36871508 -0.04633706 0.00000000)
		(0.38547486 -0.02320686 0.00000000)
		(0.40223464 0.00012592 0.00000000)
		(0.41899441 0.02345760 0.00000000)
		(0.43575419 0.04658452 0.00000000)
		(0.45251397 0.06930478 0.00000000)
		(0.46927374 0.09142005 0.00000000)
		(0.48603352 0.11273729 0.00000000)
		(0.50279330 0.13307041 0.00000000)
		(0.51955307 0.15224191 0.00000000)
		(0.53631285 0.17008444 0.00000000)
		(0.55307263 0.18644224 0.00000000)
		(0.56983240 0.20117253 0.00000000)
		(0.58659218 0.21414671 0.00000000)
		(0.60335196 0.22525153 0.00000000)
		(0.62011173 0.23439005 0.00000000)
		(0.63687151 0.24148251 0.00000000)
		(0.65363128 0.24646698 0.00000000)
		(0.67039106 0.24929995 0.00000000)
		(0.68715084 0.24995670 0.00000000)
		(0.70391061 0.24843150 0.00000000)
		(0.72067039 0.24473765 0.00000000)
		(0.73743017 0.23890740 0.00000000)
		(0.75418994 0.23099164 0.00000000)
		(0.77094972 0.22105949 0.00000000)
		(0.78770950 0.20919763 0.00000000)
		(0.80446927 0.19550961 0.00000000)
		(0.82122905 0.18011492 0.00000000)
		(0.83798883 0.16314794 0.00000000)
		(0.85474860 0.14475680 0.00000000)
		(0.87150838 0.12510202 0.00000000)
		(0.88826816 0.10435518 0.00000000)
		(0.90502793 0.08269739 0.00000000)
		(0.92178771 0.06031771 0.00000000)
		(0.93854749 0.03741149 0.00000000)
		(0.95530726 0.01417869 0.00000000)
		(0.97206704 -0.00917787 0.00000000)
		(0.98882682 -0.03245432 0.00000000)
		(1.00558659 -0.05544746 0.00000000)
		(1.02234637 -0.07795659 0.00000000)
		(1.03910615 -0.09978520 0.00000000)
		(1.05586592 -0.12074276 0.00000000)
		(1.07262570 -0.14064631 0.00000000)
		(1.08938547 -0.15932211 0.00000000)
		(1.10614525 -0.17660713 0.00000000)
		(1.12290503 -0.19235049 0.00000000)
		(1.13966480 -0.20641476 0.00000000)
		(1.15642458 -0.21867716 0.00000000)
		(1.17318436 -0.22903065 0.00000000)
		(1.18994413 -0.23738486 0.00000000)
		(1.20670391 -0.24366686 0.00000000)
		(1.22346369 -0.24782180 0.00000000)
		(1.24022346 -0.24981342 0.00000000)
		(1.25698324 -0.24962433 0.00000000)
		(1.27374302 -0.24725619 0.00000000)
		(1.29050279 -0.24272967 0.00000000)
		(1.30726257 -0.23608427 0.00000000)
		(1.32402235 -0.22737802 0.00000000)
		(1.34078212 -0.21668690 0.00000000)
		(1.35754190 -0.20410425 0.00000000)
		(1.37430168 -0.18973990 0.00000000)
		(1.39106145 -0.17371925 0.00000000)
		(1.40782123 -0.15618215 0.00000000)
		(1.42458101 -0.13728168 0.00000000)
		(1.44134078 -0.11718283 0.00000000)
		(1.45810056 -0.09606105 0.00000000)
		(1.47486034 -0.07410072 0.00000000)
		(1.49162011 -0.05149354 0.00000000)
		(1.50837989 -0.02843685 0.00000000)
		(1.52513966 -0.00513193 0.00000000)
		(1.54189944 0.01821778 0.00000000)
		(1.55865922 0.04140847 0.00000000)
		(1.57541899 0.06423769 0.00000000)
		(1.59217877 0.08650616 0.00000000)
		(1.60893855 0.10801949 0.00000000)
		(1.62569832 0.12858987 0.00000000)
		(1.64245810 0.14803775 0.00000000)
		(1.65921788 0.16619336 0.00000000)
		(1.67597765 0.18289821 0.00000000)
		(1.69273743 0.19800648 0.00000000)
		(1.70949721 0.21138629 0.00000000)
		(1.72625698 0.22292083 0.00000000)
		(1.74301676 0.23250942 0.00000000)
		(1.75977654 0.24006835 0.00000000)
		(1.77653631 0.24553165 0.00000000)
		(1.79329609 0.24885161 0.00000000)
		(1.81005587 0.24999927 0.00000000)
		(1.82681564 0.24896459 0.00000000)
		(1.84357542 0.24575662 0.00000000)
		(1.86033520 0.24040336 0.00000000)
		(1.87709497 0.23295153 0.00000000)
		(1.89385475 0.22346619 0.00000000)
		(1.91061453 0.21203014 0.00000000)
		(1.92737430 0.19874320 0.00000000)
		(1.94413408 0.18372137 0.00000000)
		(1.96089385 0.16709577 0.00000000)
		(1.97765363 0.14901153 0.00000000)
		(1.99441341 0.12962652 0.00000000)
		(2.01117318 0.10910996 0.00000000)
		(2.02793296 0.08764093 0.00000000)
		(2.04469274 0.06540687 0.00000000)
		(2.06145251 0.04260184 0.00000000)
		(2.07821229 0.01942492 0.00000000)
		(2.09497207 -0.00392156 0.00000000)
		(2.11173184 -0.02723381 0.00000000)
		(2.12849162 -0.05030832 0.00000000)
		(2.14525140 -0.07294368 0.00000000)
		(2.16201117 -0.09494228 0.00000000)
		(2.17877095 -0.11611211 0.00000000)
		(2.19553073 -0.13626835 0.00000000)
		(2.21229050 -0.15523505 0.00000000)
		(2.22905028 -0.17284666 0.00000000)
		(2.24581006 -0.18894943 0.00000000)
		(2.26256983 -0.20340280 0.00000000)
		(2.27932961 -0.21608059 0.00000000)
		(2.29608939 -0.22687214 0.00000000)
		(2.31284916 -0.23568325 0.00000000)
		(2.32960894 -0.24243700 0.00000000)
		(2.34636872 -0.24707443 0.00000000)
		(2.36312849 -0.24955507 0.00000000)
		(2.37988827 -0.24985725 0.00000000)
		(2.39664804 -0.24797835 0.00000000)
		(2.41340782 -0.24393475 0.00000000)
		(2.43016760 -0.23776177 0.00000000)
		(2.44692737 -0.22951328 0.00000000)
		(2.46368715 -0.21926130 0.00000000)
		(2.48044693 -0.20709531 0.00000000)
		(2.49720670 -0.19312151 0.00000000)
		(2.51396648 -0.17746188 0.00000000)
		(2.53072626 -0.16025314 0.00000000)
		(2.54748603 -0.14164548 0.00000000)
		(2.56424581 -0.12180136 0.00000000)
		(2.58100559 -0.10089399 0.00000000)
		(2.59776536 -0.07910588 0.00000000)
		(2.61452514 -0.05662723 0.00000000)
		(2.63128492 -0.03365427 0.00000000)
		(2.64804469 -0.01038752 0.00000000)
		(2.66480447 0.01296991 0.00000000)
		(2.68156425 0.03621411 0.00000000)
		(2.69832402 0.05914219 0.00000000)
		(2.71508380 0.08155400 0.00000000)
		(2.73184358 0.10325389 0.00000000)
		(2.74860335 0.12405245 0.00000000)
		(2.76536313 0.14376811 0.00000000)
		(2.78212291 0.16222877 0.00000000)
		(2.79888268 0.17927328 0.00000000)
		(2.81564246 0.19475285 0.00000000)
		(2.83240223 0.20853236 0.00000000)
		(2.84916201 0.22049151 0.00000000)
		(2.86592179 0.23052593 0.00000000)
		(2.88268156 0.23854800 0.00000000)
		(2.89944134 0.24448770 0.00000000)
		(2.91620112 0.24829319 0.00000000)
		(2.93296089 0.24993124 0.00000000)
		(2.95166480 0.24705790 0.00000000)
		(2.97036872 0.24448701 0.00000000)
		(2.98907263 0.24221858 0.00000000)
		(3.00777654 0.24025260 0.00000000)
		(3.02648045 0.23858909 0.00000000)
		(3.04518436 0.23722803 0.00000000)
		(3.06388827 0.23616943 0.00000000)
		(3.08259218 0.23541328 0.00000000)
		(3.10129609 0.23495960 0.00000000)
		(3.12000000 0.23480837 0.00000000)
		(3.14000000 0.23480837 0.00000000)
		(3.16000000 0.23480837 0.00000000)
		(3.18000000 0.23480837 0.00000000)
		(3.20000000 0.23480837 0.00000000)
		(3.22000000 0.23480837 0.00000000)
		(3.24000000 0.23480837 0.00000000)
		(3.26000000 0.23480837 0.00000000)
		(3.28000000 0.23480837 0.00000000)
		(3.30000000 0.23480837 0.00000000)
		(3.32000000 0.23480837 0.00000000)
		(3.34000000 0.23480837 0.00000000)
		(3.36000000 0.23480837 0.00000000)
		(3.38000000 0.23480837 0.00000000)
		(3.40000000 0.23480837 0.00000000)
		(3.42000000 0.23480837 0.00000000)
		(3.44000000 0.23480837 0.00000000)
		(3.46000000 0.23480837 0.00000000)
		(3.48000000 0.23480837 0.00000000)
		(3.50000000 0.23480837 0.00000000)
		(3.52000000 0.23480837 0.00000000)
		(3.54000000 0.23480837 0.00000000)
		(3.56000000 0.23480837 0.00000000)
		(3.58000000 0.23480837 0.00000000)
		(3.60000000 0.23480837 0.00000000)
		(3.62000000 0.23480837 0.00000000)
		(3.64000000 0.23480837 0.00000000)
		(3.66000000 0.23480837 0.00000000)
		(3.68000000 0.23480837 0.00000000)
		(3.70000000 0.23480837 0.00000000)
		(3.72000000 0.23480837 0.00000000)
		(3.74000000 0.23480837 0.00000000)
		(3.76000000 0.23480837 0.00000000)
		(3.78000000 0.23480837 0.00000000)
		(3.80000000 0.23480837 0.00000000)
		(3.82000000 0.23480837 0.00000000)
		(3.84000000 0.23480837 0.00000000)
		(3.86000000 0.23480837 0.00000000)
		(3.88000000 0.23480837 0.00000000)
		(3.90000000 0.23480837 0.00000000)
		(3.92000000 0.23480837 0.00000000)
		(3.94000000 0.23480837 0.00000000)
		(3.96000000 0.23480837 0.00000000)
		(3.98000000 0.23480837 0.00000000)
		(4.00000000 0.23480837 0.00000000)
	)
	polyLine 4 5
	(
		(-1.00000000 -0.19566646 0.10000000)
		(-0.98000000 -0.19566646 0.10000000)
		(-0.96000000 -0.19566646 0.10000000)
		(-0.94000000 -0.19566646 0.10000000)
		(-0.92000000 -0.19566646 0.10000000)
		(-0.90000000 -0.19566646 0.10000000)
		(-0.88000000 -0.19566646 0.10000000)
		(-0.86000000 -0.19566646 0.10000000)
		(-0.84000000 -0.19566646 0.10000000)
		(-0.82000000 -0.19566646 0.10000000)
		(-0.80000000 -0.19566646 0.10000000)
		(-0.78000000 -0.19566646 0.10000000)
		(-0.76000000 -0.19566646 0.10000000)
		(-0.74000000 -0.19566646 0.10000000)
		(-0.72000000 -0.19566646 0.10000000)
		(-0.70000000 -0.19566646 0.10000000)
		(-0.68000000 -0.19566646 0.10000000)
		(-0.66000000 -0.19566646 0.10000000)
		(-0.64000000 -0.19566646 0.10000000)
		(-0.62000000 -0.19566646 0.10000000)
		(-0.60000000 -0.19566646 0.10000000)
		(-0.58000000 -0.19566646 0.10000000)
		(-0.56000000 -0.19566646 0.10000000)
		(-0.54000000 -0.19566646 0.10000000)
		(-0.52000000 -0.19566646 0.10000000)
		(-0.50000000 -0.19566646 0.10000000)
		(-0.48000000 -0.19566646 0.10000000)
		(-0.46000000 -0.19566646 0.10000000)
		(-0.44000000 -0.19566646 0.10000000)
		(-0.42000000 -0.19566646 0.10000000)
		(-0.40000000 -0.19566646 0.10000000)
		(-0.38000000 -0.19566646 0.10000000)
		(-0.36000000 -0.19566646 0.10000000)
		(-0.34000000 -0.19566646 0.10000000)
		(-0.32000000 -0.19566646 0.10000000)
		(-0.30000000 -0.19566646 0.10000000)
		(-0.28000000 -0.19566646 0.10000000)
		(-0.26000000 -0.19566646 0.10000000)
		(-0.24000000 -0.19566646 0.10000000)
		(-0.22000000 -0.19566646 0.10000000)
		(-0.20000000 -0.19566646 0.10000000)
		(-0.18000000 -0.19566646 0.10000000)
		(-0.16000000 -0.19566646 0.10000000)
		(-0.14000000 -0.19566646 0.10000000)
		(-0.12000000 -0.19566646 0.10000000)
		(-0.10000000 -0.19566646 0.10000000)
		(-0.08162011 -0.19615769 0.10000000)
		(-0.06324022 -0.19763136 0.10000000)
		(-0.04486034 -0.20008748 0.10000000)
		(-0.02648045 -0.20352606 0.10000000)
		(-0.00810056 -0.20794708 0.10000000)
		(0.01027933 -0.21335055 0.10000000)
		(0.02865922 -0.21973647 0.10000000)
		(0.04703911 -0.22710484 0.10000000)
		(0.06541899 -0.23545565 0.10000000)
		(0.08379888 -0.24478892 0.10000000)
		(0.10055866 -0.24845954 0.10000000)
		(0.11731844 -0.24996126 0.10000000)
		(0.13407821 -0.24928099 0.10000000)
		(0.15083799 -0.24642466 0.10000000)
		(0.16759777 -0.24141721 0.10000000)
		(0.18435754 -0.23430234 0.10000000)
		(0.20111732 -0.22514216 0.10000000)
		(0.21787709 -0.21401665 0.10000000)
		(0.23463687 -0.20102291 0.10000000)
		(0.25139665 -0.18627437 0.10000000)
		(0.26815642 -0.16989978 0.10000000)
		(0.28491620 -0.15204207 0.10000000)
		(0.30167598 -0.13285714 0.10000000)
		(0.31843575 -0.11251245 0.10000000)
		(0.33519553 -0.09118561 0.10000000)
		(0.35195531 -0.06906277 0.10000000)
		(0.36871508 -0.04633706 0.10000000)
		(0.38547486 -0.02320686 0.10000000)
		(0.40223464 0.00012592 0.10000000)
		(0.41899441 0.02345760 0.10000000)
		(0.43575419 0.04658452 0.10000000)
		(0.45251397 0.06930478 0.10000000)
		(0.46927374 0.09142005 0.10000000)
		(0.48603352 0.11273729 0.10000000)
		(0.50279330 0.13307041 0.10000000)
		(0.51955307 0.15224191 0.10000000)
		(0.53631285 0.17008444 0.10000000)
		(0.55307263 0.18644224 0.10000000)
		(0.56983240 0.20117253 0.10000000)
		(0.58659218 0.21414671 0.10000000)
		(0.60335196 0.22525153 0.10000000)
		(0.62011173 0.23439005 0.10000000)
		(0.63687151 0.24148251 0.10000000)
		(0.65363128 0.24646698 0.10000000)
		(0.67039106 0.24929995 0.10000000)
		(0.68715084 0.24995670 0.10000000)
		(0.70391061 0.24843150 0.10000000)
		(0.72067039 0.24473765 0.10000000)
		(0.73743017 0.23890740 0.10000000)
		(0.75418994 0.23099164 0.10000000)
		(0.77094972 0.22105949 0.10000000)
		(0.78770950 0.20919763 0.10000000)
		(0.80446927 0.19550961 0.10000000)
		(0.82122905 0.18011492 0.10000000)
		(0.83798883 0.16314794 0.10000000)
		(0.85474860 0.14475680 0.10000000)
		(0.87150838 0.12510202 0.10000000)
		(0.88826816 0.10435518 0.10000000)
		(0.90502793 0.08269739 0.10000000)
		(0.92178771 0.06031771 0.10000000)
		(0.93854749 0.03741149 0.10000000)
		(0.95530726 0.01417869 0.10000000)
		(0.97206704 -0.00917787 0.10000000)
		(0.98882682 -0.03245432 0.10000000)
		(1.00558659 -0.05544746 0.10000000)
		(1.02234637 -0.07795659 0.10000000)
		(1.03910615 -0.09978520 0.10000000)
		(1.05586592 -0.12074276 0.10000000)
		(1.07262570 -0.14064631 0.10000000)
		(1.08938547 -0.15932211 0.10000000)
		(1.10614525 -0.17660713 0.10000000)
		(1.12290503 -0.19235049 0.10000000)
		(1.13966480 -0.20641476 0.10000000)
		(1.15642458 -0.21867716 0.10000000)
		(1.17318436 -0.22903065 0.10000000)
		(1.18994413 -0.23738486 0.10000000)
		(1.20670391 -0.24366686 0.10000000)
		(1.22346369 -0.24782180 0.10000000)
		(1.24022346 -0.24981342 0.10000000)
		(1.25698324 -0.24962433 0.10000000)
		(1.27374302 -0.24725619 0.10000000)
		(1.29050279 -0.24272967 0.10000000)
		(1.30726257 -0.23608427 0.10000000)
		(1.32402235 -0.22737802 0.10000000)
		(1.34078212 -0.21668690 0.10000000)
		(1.35754190 -0.20410425 0.10000000)
		(1.37430168 -0.18973990 0.10000000)
		(1.39106145 -0.17371925 0.10000000)
		(1.40782123 -0.15618215 0.10000000)
		(1.42458101 -0.13728168 0.10000000)
		(1.44134078 -0.11718283 0.10000000)
		(1.45810056 -0.09606105 0.10000000)
		(1.47486034 -0.07410072 0.10000000)
		(1.49162011 -0.05149354 0.10000000)
		(1.50837989 -0.02843685 0.10000000)
		(1.52513966 -0.00513193 0.10000000)
		(1.54189944 0.01821778 0.10000000)
		(1.55865922 0.04140847 0.10000000)
		(1.57541899 0.06423769 0.10000000)
		(1.59217877 0.08650616 0.10000000)
		(1.60893855 0.10801949 0.10000000)
		(1.62569832 0.12858987 0.10000000)
		(1.64245810 0.14803775 0.10000000)
		(1.65921788 0.16619336 0.10000000)
		(1.67597765 0.18289821 0.10000000)
		(1.69273743 0.19800648 0.10000000)
		(1.70949721 0.21138629 0.10000000)
		(1.72625698 0.22292083 0.10000000)
		(1.74301676 0.23250942 0.10000000)
		(1.75977654 0.24006835 0.10000000)
		(1.77653631 0.24553165 0.10000000)
		(1.79329609 0.24885161 0.10000000)
		(1.81005587 0.24999927 0.10000000)
		(1.82681564 0.24896459 0.10000000)
		(1.84357542 0.24575662 0.10000000)
		(1.86033520 0.24040336 0.10000000)
		(1.87709497 0.23295153 0.10000000)
		(1.89385475 0.22346619 0.10000000)
		(1.91061453 0.21203014 0.10000000)
		(1.92737430 0.19874320 0.10000000)
		(1.94413408 0.18372137 0.10000000)
		(1.96089385 0.16709577 0.10000000)
		(1.97765363 0.14901153 0.10000000)
		(1.99441341 0.12962652 0.10000000)
		(2.01117318 0.10910996 0.10000000)
		(2.02793296 0.08764093 0.10000000)
		(2.04469274 0.06540687 0.10000000)
		(2.06145251 0.04260184 0.10000000)
		(2.07821229 0.01942492 0.10000000)
		(2.09497207 -0.00392156 0.10000000)
		(2.11173184 -0.02723381 0.10000000)
		(2.12849162 -0.05030832 0.10000000)
		(2.14525140 -0.07294368 0.10000000)
		(2.16201117 -0.09494228 0.10000000)
		(2.17877095 -0.11611211 0.10000000)
		(2.19553073 -0.13626835 0.10000000)
		(2.21229050 -0.15523505 0.10000000)
		(2.22905028 -0.17284666 0.10000000)
		(2.24581006 -0.18894943 0.10000000)
		(2.26256983 -0.20340280 0.10000000)
		(2.27932961 -0.21608059 0.10000000)
		(2.29608939 -0.22687214 0.10000000)
		(2.31284916 -0.23568325 0.10000000)
		(2.32960894 -0.24243700 0.10000000)
		(2.34636872 -0.24707443 0.10000000)
		(2.36312849 -0.24955507 0.10000000)
		(2.37988827 -0.24985725 0.10000000)
		(2.39664804 -0.24797835 0.10000000)
		(2.41340782 -0.24393475 0.10000000)
		(2.43016760 -0.23776177 0.10000000)
		(2.44692737 -0.22951328 0.10000000)
		(2.46368715 -0.21926130 0.10000000)
		(2.48044693 -0.20709531 0.10000000)
		(2.49720670 -0.19312151 0.10000000)
		(2.51396648 -0.17746188 0.10000000)
		(2.53072626 -0.16025314 0.10000000)
		(2.54748603 -0.14164548 0.10000000)
		(2.56424581 -0.12180136 0.10000000)
		(2.58100559 -0.10089399 0.10000000)
		(2.59776536 -0.07910588 0.10000000)
		(2.61452514 -0.05662723 0.10000000)
		(2.63128492 -0.03365427 0.10000000)
		(2.64804469 -0.01038752 0.10000000)
		(2.66480447 0.01296991 0.10000000)
		(2.68156425 0.03621411 0.10000000)
		(2.69832402 0.05914219 0.10000000)
		(2.71508380 0.08155400 0.10000000)
		(2.73184358 0.10325389 0.10000000)
		(2.74860335 0.12405245 0.10000000)
		(2.76536313 0.14376811 0.10000000)
		(2.78212291 0.16222877 0.10000000)
		(2.79888268 0.17927328 0.10000000)
		(2.81564246 0.19475285 0.10000000)
		(2.83240223 0.20853236 0.10000000)
		(2.84916201 0.22049151 0.10000000)
		(2.86592179 0.23052593 0.10000000)
		(2.88268156 0.23854800 0.10000000)
		(2.89944134 0.24448770 0.10000000)
		(2.91620112 0.24829319 0.10000000)
		(2.93296089 0.24993124 0.10000000)
		(2.95166480 0.24705790 0.10000000)
		(2.97036872 0.24448701 0.10000000)
		(2.98907263 0.24221858 0.10000000)
		(3.00777654 0.24025260 0.10000000)
		(3.02648045 0.23858909 0.10000000)
		(3.04518436 0.23722803 0.10000000)
		(3.06388827 0.23616943 0.10000000)
		(3.08259218 0.23541328 0.10000000)
		(3.10129609 0.23495960 0.10000000)
		(3.12000000 0.23480837 0.10000000)
		(3.14000000 0.23480837 0.10000000)
		(3.16000000 0.23480837 0.10000000)
		(3.18000000 0.23480837 0.10000000)
		(3.20000000 0.23480837 0.10000000)
		(3.22000000 0.23480837 0.10000000)
		(3.24000000 0.23480837 0.10000000)
		(3.26000000 0.23480837 0.10000000)
		(3.28000000 0.23480837 0.10000000)
		(3.30000000 0.23480837 0.10000000)
		(3.32000000 0.23480837 0.10000000)
		(3.34000000 0.23480837 0.10000000)
		(3.36000000 0.23480837 0.10000000)
		(3.38000000 0.23480837 0.10000000)
		(3.40000000 0.23480837 0.10000000)
		(3.42000000 0.23480837 0.10000000)
		(3.44000000 0.23480837 0.10000000)
		(3.46000000 0.23480837 0.10000000)
		(3.48000000 0.23480837 0.10000000)
		(3.50000000 0.23480837 0.10000000)
		(3.52000000 0.23480837 0.10000000)
		(3.54000000 0.23480837 0.10000000)
		(3.56000000 0.23480837 0.10000000)
		(3.58000000 0.23480837 0.10000000)
		(3.60000000 0.23480837 0.10000000)
		(3.62000000 0.23480837 0.10000000)
		(3.64000000 0.23480837 0.10000000)
		(3.66000000 0.23480837 0.10000000)
		(3.68000000 0.23480837 0.10000000)
		(3.70000000 0.23480837 0.10000000)
		(3.72000000 0.23480837 0.10000000)
		(3.74000000 0.23480837 0.10000000)
		(3.76000000 0.23480837 0.10000000)
		(3.78000000 0.23480837 0.10000000)
		(3.80000000 0.23480837 0.10000000)
		(3.82000000 0.23480837 0.10000000)
		(3.84000000 0.23480837 0.10000000)
		(3.86000000 0.23480837 0.10000000)
		(3.88000000 0.23480837 0.10000000)
		(3.90000000 0.23480837 0.10000000)
		(3.92000000 0.23480837 0.10000000)
		(3.94000000 0.23480837 0.10000000)
		(3.96000000 0.23480837 0.10000000)
		(3.98000000 0.23480837 0.10000000)
		(4.00000000 0.23480837 0.10000000)
	)
	polyLine 3 2
	(
		(-1.00000000 0.30433354 0.00000000)
		(-0.98000000 0.30663707 0.00000000)
		(-0.96000000 0.30894060 0.00000000)
		(-0.94000000 0.31124413 0.00000000)
		(-0.92000000 0.31354766 0.00000000)
		(-0.90000000 0.31585120 0.00000000)
		(-0.88000000 0.31815473 0.00000000)
		(-0.86000000 0.32045826 0.00000000)
		(-0.84000000 0.32276179 0.00000000)
		(-0.82000000 0.32506532 0.00000000)
		(-0.80000000 0.32736885 0.00000000)
		(-0.78000000 0.32967239 0.00000000)
		(-0.76000000 0.33197592 0.00000000)
		(-0.74000000 0.33427945 0.00000000)
		(-0.72000000 0.33658298 0.00000000)
		(-0.70000000 0.33888651 0.00000000)
		(-0.68000000 0.34119004 0.00000000)
		(-0.66000000 0.34349358 0.00000000)
		(-0.64000000 0.34579711 0.00000000)
		(-0.62000000 0.34810064 0.00000000)
		(-0.60000000 0.35040417 0.00000000)
		(-0.58000000 0.35270770 0.00000000)
		(-0.56000000 0.35501123 0.00000000)
		(-0.54000000 0.35731477 0.00000000)
		(-0.52000000 0.35961830 0.00000000)
		(-0.50000000 0.36192183 0.00000000)
		(-0.48000000 0.36422536 0.00000000)
		(-0.46000000 0.36652889 0.00000000)
		(-0.44000000 0.36883242 0.00000000)
		(-0.42000000 0.37113596 0.00000000)
		(-0.40000000 0.37343949 0.00000000)
		(-0.38000000 0.37574302 0.00000000)
		(-0.36000000 0.37804655 0.00000000)
		(-0.34000000 0.38035008 0.00000000)
		(-0.32000000 0.38265361 0.00000000)
		(-0.30000000 0.38495715 0.00000000)
		(-0.28000000 0.38726068 0.00000000)
		(-0.26000000 0.38956421 0.00000000)
		(-0.24000000 0.39186774 0.00000000)
		(-0.22000000 0.39417127 0.00000000)
		(-0.20000000 0.39647480 0.00000000)
		(-0.18000000 0.39877834 0.00000000)
		(-0.16000000 0.40108187 0.00000000)
		(-0.14000000 0.40338540 0.00000000)
		(-0.12000000 0.40568893 0.00000000)
		(-0.10000000 0.40799246 0.00000000)
		(-0.08162011 0.40974147 0.00000000)
		(-0.06324022 0.41084466 0.00000000)
		(-0.04486034 0.41130205 0.00000000)
		(-0.02648045 0.41111363 0.00000000)
		(-0.00810056 0.41027940 0.00000000)
		(0.01027933 0.40879936 0.00000000)
		(0.02865922 0.40667352 0.00000000)
		(0.04703911 0.40390186 0.00000000)
		(0.06541899 0.40048440 0.00000000)
		(0.08379888 0.39642114 0.00000000)
		(0.10055866 0.39486797 0.00000000)
		(0.11731844 0.39423254 0.00000000)
		(0.13407821 0.39452038 0.00000000)
		(0.15083799 0.39572900 0.00000000)
		(0.16759777 0.39784783 0.00000000)
		(0.18435754 0.40085838 0.00000000)
		(0.20111732 0.40473438 0.00000000)
		(0.21787709 0.40944198 0.00000000)
		(0.23463687 0.41494009 0.00000000)
		(0.25139665 0.42118072 0.00000000)
		(0.26815642 0.42810939 0.00000000)
		(0.28491620 0.43566561 0.00000000)
		(0.30167598 0.44378344 0.00000000)
		(0.31843575 0.45239199 0.00000000)
		(0.33519553 0.46141614 0.00000000)
		(0.35195531 0.47077709 0.00000000)
		(0.36871508 0.48039315 0.00000000)
		(0.38547486 0.49018035 0.00000000)
		(0.40223464 0.50005328 0.00000000)
		(0.41899441 0.50992574 0.00000000)
		(0.43575419 0.51971156 0.00000000)
		(0.45251397 0.52932531 0.00000000)
		(0.46927374 0.53868306 0.00000000)
		(0.48603352 0.54770314 0.00000000)
		(0.50279330 0.55630680 0.00000000)
		(0.51955307 0.56441894 0.00000000)
		(0.53631285 0.57196875 0.00000000)
		(0.55307263 0.57889032 0.00000000)
		(0.56983240 0.58512322 0.00000000)
		(0.58659218 0.59061306 0.00000000)
		(0.60335196 0.59531190 0.00000000)
		(0.62011173 0.59917873 0.00000000)
		(0.63687151 0.60217980 0.00000000)
		(0.65363128 0.60428891 0.00000000)
		(0.67039106 0.60548764 0.00000000)
		(0.68715084 0.60576553 0.00000000)
		(0.70391061 0.60512017 0.00000000)
		(0.72067039 0.60355717 0.00000000)
		(0.73743017 0.60109018 0.00000000)
		(0.75418994 0.59774075 0.00000000)
		(0.77094972 0.59353810 0.00000000)
		(0.78770950 0.58851893 0.00000000)
		(0.80446927 0.58272704 0.00000000)
		(0.82122905 0.57621300 0.00000000)
		(0.83798883 0.56903367 0.00000000)
		(0.85474860 0.56125173 0.00000000)
		(0.87150838 0.55293509 0.00000000)
		(0.88826816 0.54415637 0.00000000)
		(0.90502793 0.53499220 0.00000000)
		(0.92178771 0.52552256 0.00000000)
		(0.93854749 0.51583013 0.00000000)
		(0.95530726 0.50599951 0.00000000)
		(0.97206704 0.49611652 0.00000000)
		(0.98882682 0.48626743 0.00000000)
		(1.00558659 0.47653821 0.00000000)
		(1.02234637 0.46701381 0.00000000)
		(1.03910615 0.45777735 0.00000000)
		(1.05586592 0.44890946 0.00000000)
		(1.07262570 0.44048757 0.00000000)
		(1.08938547 0.43258517 0.00000000)
		(1.10614525 0.42527127 0.00000000)
		(1.12290503 0.41860969 0.00000000)
		(1.13966480 0.41265860 0.00000000)
		(1.15642458 0.40746995 0.00000000)
		(1.17318436 0.40308902 0.00000000)
		(1.18994413 0.39955406 0.00000000)
		(1.20670391 0.39689592 0.00000000)
		(1.22346369 0.39513782 0.00000000)
		(1.24022346 0.39429509 0.00000000)
		(1.25698324 0.39437510 0.00000000)
		(1.27374302 0.39537715 0.00000000)
		(1.29050279 0.39729248 0.00000000)
		(1.30726257 0.40010438 0.00000000)
		(1.32402235 0.40378831 0.00000000)
		(1.34078212 0.40831210 0.00000000)
		(1.35754190 0.41363626 0.00000000)
		(1.37430168 0.41971433 0.00000000)
		(1.39106145 0.42649323 0.00000000)
		(1.40782123 0.43391380 0.00000000)
		(1.42458101 0.44191126 0.00000000)
		(1.44134078 0.45041580 0.00000000)
		(1.45810056 0.45935317 0.00000000)
		(1.47486034 0.46864536 0.00000000)
		(1.49162011 0.47821126 0.00000000)
		(1.50837989 0.48796736 0.00000000)
		(1.52513966 0.49782850 0.00000000)
		(1.54189944 0.50770859 0.00000000)
		(1.55865922 0.51752139 0.00000000)
		(1.57541899 0.52718124 0.00000000)
		(1.59217877 0.53660382 0.00000000)
		(1.60893855 0.54570687 0.00000000)
		(1.62569832 0.55441093 0.00000000)
		(1.64245810 0.56264002 0.00000000)
		(1.65921788 0.57032230 0.00000000)
		(1.67597765 0.57739071 0.00000000)
		(1.69273743 0.58378356 0.00000000)
		(1.70949721 0.58944503 0.00000000)
		(1.72625698 0.59432570 0.00000000)
		(1.74301676 0.59838297 0.00000000)
		(1.75977654 0.60158142 0.00000000)
		(1.77653631 0.60389314 0.00000000)
		(1.79329609 0.60529793 0.00000000)
		(1.81005587 0.60578355 0.00000000)
		(1.82681564 0.60534574 0.00000000)
		(1.84357542 0.60398833 0.00000000)
		(1.86033520 0.60172318 0.00000000)
		(1.87709497 0.59857004 0.00000000)
		(1.89385475 0.59455646 0.00000000)
		(1.91061453 0.58971746 0.00000000)
		(1.92737430 0.58409529 0.00000000)
		(1.94413408 0.57773902 0.00000000)
		(1.96089385 0.57070414 0.00000000)
		(1.97765363 0.56305206 0.00000000)
		(1.99441341 0.55484957 0.00000000)
		(2.01117318 0.54616829 0.00000000)
		(2.02793296 0.53708398 0.00000000)
		(2.04469274 0.52767596 0.00000000)
		(2.06145251 0.51802635 0.00000000)
		(2.07821229 0.50821937 0.00000000)
		(2.09497207 0.49834065 0.00000000)
		(2.11173184 0.48847641 0.00000000)
		(2.12849162 0.47871277 0.00000000)
		(2.14525140 0.46913495 0.00000000)
		(2.16201117 0.45982656 0.00000000)
		(2.17877095 0.45086885 0.00000000)
		(2.19553073 0.44234004 0.00000000)
		(2.21229050 0.43431455 0.00000000)
		(2.22905028 0.42686245 0.00000000)
		(2.24581006 0.42004880 0.00000000)
		(2.26256983 0.41393307 0.00000000)
		(2.27932961 0.40856865 0.00000000)
		(2.29608939 0.40400236 0.00000000)
		(2.31284916 0.40027407 0.00000000)
		(2.32960894 0.39741632 0.00000000)
		(2.34636872 0.39545406 0.00000000)
		(2.36312849 0.39440441 0.00000000)
		(2.37988827 0.39427655 0.00000000)
		(2.39664804 0.39507158 0.00000000)
		(2.41340782 0.39678257 0.00000000)
		(2.43016760 0.39939457 0.00000000)
		(2.44692737 0.40288480 0.00000000)
		(2.46368715 0.40722278 0.00000000)
		(2.48044693 0.41237064 0.00000000)
		(2.49720670 0.41828345 0.00000000)
		(2.51396648 0.42490959 0.00000000)