/*--------------------------------*- C++ -*----------------------------------*\\
/*--------------------------------*- C++ -*----------------------------------*\\
| =========                 |                                                 |
| \\\\      /  F ield         | OpenFOAM: The Open Source CFD Toolbox           |
|  \\\\    /   O peration     | Version:  v2012                                 |
|   \\\\  /    A nd           | Website:  www.openfoam.com                      |
|    \\\\/     M anipulation  |                                                 |
\\*---------------------------------------------------------------------------*/
FoamFile
{
    version     2.0;
    format      ascii;
    class       dictionary;
    object      blockMeshDict;
}
// * * * * * * * * * * * * * * * * * * * * * * * * * * * * * * * * * * * * * //

scale   0.01;

xmin -1;
xmax 5;
ymin 0;
ymax 0.5;
zmin 0;
zmax 0.1;

vertices
(
    (-1.00000000 -0.18723273 0.00000000)
    (4.00000000 -0.13000189 0.00000000)
    (4.00000000 0.36999811 0.00000000)
    (-1.00000000 0.31276727 0.00000000)
    (-1.00000000 -0.18723273 0.10000000)
    (4.00000000 -0.13000189 0.10000000)
    (4.00000000 0.36999811 0.10000000)
    (-1.00000000 0.31276727 0.10000000)
);

blocks
(
    hex (0 1 2 3 4 5 6 7) (200 20 1) simpleGrading (1 1 1)
);

edges
(
	polyLine 0 1
	(
		(-1.00000000 -0.18723273 0.00000000)
		(-0.98000000 -0.18723273 0.00000000)
		(-0.96000000 -0.18723273 0.00000000)
		(-0.94000000 -0.18723273 0.00000000)
		(-0.92000000 -0.18723273 0.00000000)
		(-0.90000000 -0.18723273 0.00000000)
		(-0.88000000 -0.18723273 0.00000000)
		(-0.86000000 -0.18723273 0.00000000)
		(-0.84000000 -0.18723273 0.00000000)
		(-0.82000000 -0.18723273 0.00000000)
		(-0.80000000 -0.18723273 0.00000000)
		(-0.78000000 -0.18723273 0.00000000)
		(-0.76000000 -0.18723273 0.00000000)
		(-0.74000000 -0.18723273 0.00000000)
		(-0.72000000 -0.18723273 0.00000000)
		(-0.70000000 -0.18723273 0.00000000)
		(-0.68000000 -0.18723273 0.00000000)
		(-0.66000000 -0.18723273 0.00000000)
		(-0.64000000 -0.18723273 0.00000000)
		(-0.62000000 -0.18723273 0.00000000)
		(-0.60000000 -0.18723273 0.00000000)
		(-0.58000000 -0.18723273 0.00000000)
		(-0.56000000 -0.18723273 0.00000000)
		(-0.54000000 -0.18723273 0.00000000)
		(-0.52000000 -0.18723273 0.00000000)
		(-0.50000000 -0.18723273 0.00000000)
		(-0.48000000 -0.18723273 0.00000000)
		(-0.46000000 -0.18723273 0.00000000)
		(-0.44000000 -0.18723273 0.00000000)
		(-0.42000000 -0.18723273 0.00000000)
		(-0.40000000 -0.18723273 0.00000000)
		(-0.38000000 -0.18723273 0.00000000)
		(-0.36000000 -0.18723273 0.00000000)
		(-0.34000000 -0.18723273 0.00000000)
		(-0.32000000 -0.18723273 0.00000000)
		(-0.30000000 -0.18723273 0.00000000)
		(-0.28000000 -0.18723273 0.00000000)
		(-0.26000000 -0.18723273 0.00000000)
		(-0.24000000 -0.18723273 0.00000000)
		(-0.22000000 -0.18723273 0.00000000)
		(-0.20000000 -0.18723273 0.00000000)
		(-0.18000000 -0.18723273 0.00000000)
		(-0.16000000 -0.18723273 0.00000000)
		(-0.14000000 -0.18723273 0.00000000)
		(-0.12000000 -0.18723273 0.00000000)
		(-0.10000000 -0.18723273 0.00000000)
		(-0.08162011 -0.18653048 0.00000000)
		(-0.06324022 -0.18442374 0.00000000)
		(-0.04486034 -0.18091251 0.00000000)
		(-0.02648045 -0.17599679 0.00000000)
		(-0.00810056 -0.16967657 0.00000000)
		(0.01027933 -0.16195186 0.00000000)
		(0.02865922 -0.15282266 0.00000000)
		(0.04703911 -0.14228896 0.00000000)
		(0.06541899 -0.13035078 0.00000000)
		(0.08379888 -0.11700810 0.00000000)
		(0.10055866 -0.10084005 0.00000000)
		(0.11731844 -0.08415126 0.00000000)
		(0.13407821 -0.06702791 0.00000000)
		(0.15083799 -0.04955842 0.00000000)
		(0.16759777 -0.03183300 0.00000000)
		(0.18435754 -0.01394320 0.00000000)
		(0.20111732 0.00401860 0.00000000)
		(0.21787709 0.02195965 0.00000000)
		(0.23463687 0.03978730 0.00000000)
		(0.25139665 0.05740949 0.00000000)
		(0.26815642 0.07473521 0.00000000)
		(0.28491620 0.09167499 0.00000000)
		(0.30167598 0.10814136 0.00000000)
		(0.31843575 0.12404928 0.00000000)
		(0.33519553 0.13931660 0.00000000)
		(0.35195531 0.15386448 0.00000000)
		(0.36871508 0.16761780 0.00000000)
		(0.38547486 0.18050553 0.00000000)
		(0.40223464 0.19246112 0.00000000)
		(0.41899441 0.20342282 0.00000000)
		(0.43575419 0.21333404 0.00000000)
		(0.45251397 0.22214359 0.00000000)
		(0.46927374 0.22980598 0.00000000)
		(0.48603352 0.23628164 0.00000000)
		(0.50279330 0.24153712 0.00000000)
		(0.51955307 0.24554529 0.00000000)
		(0.53631285 0.24828545 0.00000000)
		(0.55307263 0.24974345 0.00000000)
		(0.56983240 0.24991176 0.00000000)
		(0.58659218 0.24878951 0.00000000)
		(0.60335196 0.24638250 0.00000000)
		(0.62011173 0.24270315 0.00000000)
		(0.63687151 0.23777047 0.00000000)
		(0.65363128 0.23160993 0.00000000)
		(0.67039106 0.22425334 0.00000000)
		(0.68715084 0.21573870 0.00000000)
		(0.70391061 0.20610996 0.00000000)
		(0.72067039 0.19541687 0.00000000)
		(0.73743017 0.18371463 0.00000000)
		(0.75418994 0.17106367 0.00000000)
		(0.77094972 0.15752933 0.00000000)
		(0.78770950 0.14318150 0.00000000)
		(0.80446927 0.12809428 0.00000000)
		(0.82122905 0.11234556 0.00000000)
		(0.83798883 0.09601669 0.00000000)
		(0.85474860 0.07919198 0.00000000)
		(0.87150838 0.06195832 0.00000000)
		(0.88826816 0.04440471 0.00000000)
		(0.90502793 0.02662178 0.00000000)
		(0.92178771 0.00870138 0.00000000)
		(0.93854749 -0.00926395 0.00000000)
		(0.95530726 -0.02718145 0.00000000)
		(0.97206704 -0.04495858 0.00000000)
		(0.98882682 -0.06250354 0.00000000)
		(1.00558659 -0.07972573 0.00000000)
		(1.02234637 -0.09653621 0.00000000)
		(1.03910615 -0.11284817 0.00000000)
		(1.05586592 -0.12857738 0.00000000)
		(1.07262570 -0.14364261 0.00000000)
		(1.08938547 -0.15796605 0.00000000)
		(1.10614525 -0.17147375 0.00000000)
		(1.12290503 -0.18409595 0.00000000)
		(1.13966480 -0.19576747 0.00000000)
		(1.15642458 -0.20642804 0.00000000)
		(1.17318436 -0.21602259 0.00000000)
		(1.18994413 -0.22450159 0.00000000)
		(1.20670391 -0.23182126 0.00000000)
		(1.22346369 -0.23794378 0.00000000)
		(1.24022346 -0.24283755 0.00000000)
		(1.25698324 -0.24647729 0.00000000)
		(1.27374302 -0.24884421 0.00000000)
		(1.29050279 -0.24992608 0.00000000)
		(1.30726257 -0.24971732 0.00000000)
		(1.32402235 -0.24821901 0.00000000)
		(1.34078212 -0.24543887 0.00000000)
		(1.35754190 -0.24139128 0.00000000)
		(1.37430168 -0.23609712 0.00000000)
		(1.39106145 -0.22958375 0.00000000)
		(1.40782123 -0.22188479 0.00000000)
		(1.42458101 -0.21304001 0.00000000)
		(1.44134078 -0.20309507 0.00000000)
		(1.45810056 -0.19210134 0.00000000)
		(1.47486034 -0.18011559 0.00000000)
		(1.49162011 -0.16719971 0.00000000)
		(1.50837989 -0.15342040 0.00000000)
		(1.52513966 -0.13884882 0.00000000)
		(1.54189944 -0.12356022 0.00000000)
		(1.55865922 -0.10763354 0.00000000)
		(1.57541899 -0.09115104 0.00000000)
		(1.59217877 -0.07419782 0.00000000)
		(1.60893855 -0.05686145 0.00000000)
		(1.62569832 -0.03923144 0.00000000)
		(1.64245810 -0.02139884 0.00000000)
		(1.65921788 -0.00345573 0.00000000)
		(1.67597765 0.01450523 0.00000000)
		(1.69273743 0.03239128 0.00000000)
		(1.70949721 0.05011005 0.00000000)
		(1.72625698 0.06757006 0.00000000)
		(1.74301676 0.08468113 0.00000000)
		(1.75977654 0.10135490 0.00000000)
		(1.77653631 0.11750527 0.00000000)
		(1.79329609 0.13304884 0.00000000)
		(1.81005587 0.14790533 0.00000000)
		(1.82681564 0.16199803 0.00000000)
		(1.84357542 0.17525417 0.00000000)
		(1.86033520 0.18760528 0.00000000)
		(1.87709497 0.19898759 0.00000000)
		(1.89385475 0.20934231 0.00000000)
		(1.91061453 0.21861598 0.00000000)
		(1.92737430 0.22676070 0.00000000)
		(1.94413408 0.23373441 0.00000000)
		(1.96089385 0.23950111 0.00000000)
		(1.97765363 0.24403101 0.00000000)
		(1.99441341 0.24730072 0.00000000)
		(2.01117318 0.24929335 0.00000000)
		(2.02793296 0.24999861 0.00000000)
		(2.04469274 0.24941287 0.00000000)
		(2.06145251 0.24753915 0.00000000)
		(2.07821229 0.24438712 0.00000000)
		(2.09497207 0.23997306 0.00000000)
		(2.11173184 0.23431977 0.00000000)
		(2.12849162 0.22745643 0.00000000)
		(2.14525140 0.21941849 0.00000000)
		(2.16201117 0.21024747 0.00000000)
		(2.17877095 0.19999072 0.00000000)
		(2.19553073 0.18870120 0.00000000)
		(2.21229050 0.17643721 0.00000000)
		(2.22905028 0.16326210 0.00000000)
		(2.24581006 0.14924389 0.00000000)
		(2.26256983 0.13445497 0.00000000)
		(2.27932961 0.11897172 0.00000000)
		(2.29608939 0.10287410 0.00000000)
		(2.31284916 0.08624523 0.00000000)
		(2.32960894 0.06917098 0.00000000)
		(2.34636872 0.05173952 0.00000000)
		(2.36312849 0.03404089 0.00000000)
		(2.37988827 0.01616646 0.00000000)
		(2.39664804 -0.00179145 0.00000000)
		(2.41340782 -0.01974011 0.00000000)
		(2.43016760 -0.03758683 0.00000000)
		(2.44692737 -0.05523945 0.00000000)
		(2.46368715 -0.07260681 0.00000000)
		(2.48044693 -0.08959923 0.00000000)
		(2.49720670 -0.10612895 0.00000000)
		(2.51396648 -0.12211061 0.00000000)
		(2.53072626 -0.13746169 0.00000000)
		(2.54748603 -0.15210290 0.00000000)
		(2.56424581 -0.16595865 0.00000000)
		(2.58100559 -0.17895738 0.00000000)
		(2.59776536 -0.19103196 0.00000000)
		(2.61452514 -0.20212004 0.00000000)
		(2.63128492 -0.21216436 0.00000000)
		(2.64804469 -0.22111305 0.00000000)
		(2.66480447 -0.22891990 0.00000000)
		(2.68156425 -0.23554460 0.00000000)
		(2.69832402 -0.24095293 0.00000000)
		(2.71508380 -0.24511696 0.00000000)
		(2.73184358 -0.24801519 0.00000000)
		(2.74860335 -0.24963266 0.00000000)
		(2.76536313 -0.24996101 0.00000000)
		(2.78212291 -0.24899855 0.00000000)
		(2.79888268 -0.24675025 0.00000000)
		(2.81564246 -0.24322771 0.00000000)
		(2.83240223 -0.23844913 0.00000000)
		(2.84916201 -0.23243918 0.00000000)
		(2.86592179 -0.22522891 0.00000000)
		(2.88268156 -0.21685554 0.00000000)
		(2.89944134 -0.20736231 0.00000000)
		(2.91620112 -0.19679825 0.00000000)
		(2.93296089 -0.18521792 0.00000000)
		(2.95166480 -0.17472687 0.00000000)
		(2.97036872 -0.16534015 0.00000000)
		(2.98907263 -0.15705774 0.00000000)
		(3.00777654 -0.14987966 0.00000000)
		(3.02648045 -0.14380590 0.00000000)
		(3.04518436 -0.13883646 0.00000000)
		(3.06388827 -0.13497133 0.00000000)
		(3.08259218 -0.13221053 0.00000000)
		(3.10129609 -0.13055405 0.00000000)
		(3.12000000 -0.13000189 0.00000000)
		(3.14000000 -0.13000189 0.00000000)
		(3.16000000 -0.13000189 0.00000000)
		(3.18000000 -0.13000189 0.00000000)
		(3.20000000 -0.13000189 0.00000000)
		(3.22000000 -0.13000189 0.00000000)
		(3.24000000 -0.13000189 0.00000000)
		(3.26000000 -0.13000189 0.00000000)
		(3.28000000 -0.13000189 0.00000000)
		(3.30000000 -0.13000189 0.00000000)
		(3.32000000 -0.13000189 0.00000000)
		(3.34000000 -0.13000189 0.00000000)
		(3.36000000 -0.13000189 0.00000000)
		(3.38000000 -0.13000189 0.00000000)
		(3.40000000 -0.13000189 0.00000000)
		(3.42000000 -0.13000189 0.00000000)
		(3.44000000 -0.13000189 0.00000000)
		(3.46000000 -0.13000189 0.00000000)
		(3.48000000 -0.13000189 0.00000000)
		(3.50000000 -0.13000189 0.00000000)
		(3.52000000 -0.13000189 0.00000000)
		(3.54000000 -0.13000189 0.00000000)
		(3.56000000 -0.13000189 0.00000000)
		(3.58000000 -0.13000189 0.00000000)
		(3.60000000 -0.13000189 0.00000000)
		(3.62000000 -0.13000189 0.00000000)
		(3.64000000 -0.13000189 0.00000000)
		(3.66000000 -0.13000189 0.00000000)
		(3.68000000 -0.13000189 0.00000000)
		(3.70000000 -0.13000189 0.00000000)
		(3.72000000 -0.13000189 0.00000000)
		(3.74000000 -0.13000189 0.00000000)
		(3.76000000 -0.13000189 0.00000000)
		(3.78000000 -0.13000189 0.00000000)
		(3.80000000 -0.13000189 0.00000000)
		(3.82000000 -0.13000189 0.00000000)
		(3.84000000 -0.13000189 0.00000000)
		(3.86000000 -0.13000189 0.00000000)
		(3.88000000 -0.13000189 0.00000000)
		(3.90000000 -0.13000189 0.00000000)
		(3.92000000 -0.13000189 0.00000000)
		(3.94000000 -0.13000189 0.00000000)
		(3.96000000 -0.13000189 0.00000000)
		(3.98000000 -0.13000189 0.00000000)
		(4.00000000 -0.13000189 0.00000000)
	)
	polyLine 4 5
	(
		(-1.00000000 -0.18723273 0.10000000)
		(-0.98000000 -0.18723273 0.10000000)
		(-0.96000000 -0.18723273 0.10000000)
		(-0.94000000 -0.18723273 0.10000000)
		(-0.92000000 -0.18723273 0.10000000)
		(-0.90000000 -0.18723273 0.10000000)
		(-0.88000000 -0.18723273 0.10000000)
		(-0.86000000 -0.18723273 0.10000000)
		(-0.84000000 -0.18723273 0.10000000)
		(-0.82000000 -0.18723273 0.10000000)
		(-0.80000000 -0.18723273 0.10000000)
		(-0.78000000 -0.18723273 0.10000000)
		(-0.76000000 -0.18723273 0.10000000)
		(-0.74000000 -0.18723273 0.10000000)
		(-0.72000000 -0.18723273 0.10000000)
		(-0.70000000 -0.18723273 0.10000000)
		(-0.68000000 -0.18723273 0.10000000)
		(-0.66000000 -0.18723273 0.10000000)
		(-0.64000000 -0.18723273 0.10000000)
		(-0.62000000 -0.18723273 0.10000000)
		(-0.60000000 -0.18723273 0.10000000)
		(-0.58000000 -0.18723273 0.10000000)
		(-0.56000000 -0.18723273 0.10000000)
		(-0.54000000 -0.18723273 0.10000000)
		(-0.52000000 -0.18723273 0.10000000)
		(-0.50000000 -0.18723273 0.10000000)
		(-0.48000000 -0.18723273 0.10000000)
		(-0.46000000 -0.18723273 0.10000000)
		(-0.44000000 -0.18723273 0.10000000)
		(-0.42000000 -0.18723273 0.10000000)
		(-0.40000000 -0.18723273 0.10000000)
		(-0.38000000 -0.18723273 0.10000000)
		(-0.36000000 -0.18723273 0.10000000)
		(-0.34000000 -0.18723273 0.10000000)
		(-0.32000000 -0.18723273 0.10000000)
		(-0.30000000 -0.18723273 0.10000000)
		(-0.28000000 -0.18723273 0.10000000)
		(-0.26000000 -0.18723273 0.10000000)
		(-0.24000000 -0.18723273 0.10000000)
		(-0.22000000 -0.18723273 0.10000000)
		(-0.20000000 -0.18723273 0.10000000)
		(-0.18000000 -0.18723273 0.10000000)
		(-0.16000000 -0.18723273 0.10000000)
		(-0.14000000 -0.18723273 0.10000000)
		(-0.12000000 -0.18723273 0.10000000)
		(-0.10000000 -0.18723273 0.10000000)
		(-0.08162011 -0.18653048 0.10000000)
		(-0.06324022 -0.18442374 0.10000000)
		(-0.04486034 -0.18091251 0.10000000)
		(-0.02648045 -0.17599679 0.10000000)
		(-0.00810056 -0.16967657 0.10000000)
		(0.01027933 -0.16195186 0.10000000)
		(0.02865922 -0.15282266 0.10000000)
		(0.04703911 -0.14228896 0.10000000)
		(0.06541899 -0.13035078 0.10000000)
		(0.08379888 -0.11700810 0.10000000)
		(0.10055866 -0.10084005 0.10000000)
		(0.11731844 -0.08415126 0.10000000)
		(0.13407821 -0.06702791 0.10000000)
		(0.15083799 -0.04955842 0.10000000)
		(0.16759777 -0.03183300 0.10000000)
		(0.18435754 -0.01394320 0.10000000)
		(0.20111732 0.00401860 0.10000000)
		(0.21787709 0.02195965 0.10000000)
		(0.23463687 0.03978730 0.10000000)
		(0.25139665 0.05740949 0.10000000)
		(0.26815642 0.07473521 0.10000000)
		(0.28491620 0.09167499 0.10000000)
		(0.30167598 0.10814136 0.10000000)
		(0.31843575 0.12404928 0.10000000)
		(0.33519553 0.13931660 0.10000000)
		(0.35195531 0.15386448 0.10000000)
		(0.36871508 0.16761780 0.10000000)
		(0.38547486 0.18050553 0.10000000)
		(0.40223464 0.19246112 0.10000000)
		(0.41899441 0.20342282 0.10000000)
		(0.43575419 0.21333404 0.10000000)
		(0.45251397 0.22214359 0.10000000)
		(0.46927374 0.22980598 0.10000000)
		(0.48603352 0.23628164 0.10000000)
		(0.50279330 0.24153712 0.10000000)
		(0.51955307 0.24554529 0.10000000)
		(0.53631285 0.24828545 0.10000000)
		(0.55307263 0.24974345 0.10000000)
		(0.56983240 0.24991176 0.10000000)
		(0.58659218 0.24878951 0.10000000)
		(0.60335196 0.24638250 0.10000000)
		(0.62011173 0.24270315 0.10000000)
		(0.63687151 0.23777047 0.10000000)
		(0.65363128 0.23160993 0.10000000)
		(0.67039106 0.22425334 0.10000000)
		(0.68715084 0.21573870 0.10000000)
		(0.70391061 0.20610996 0.10000000)
		(0.72067039 0.19541687 0.10000000)
		(0.73743017 0.18371463 0.10000000)
		(0.75418994 0.17106367 0.10000000)
		(0.77094972 0.15752933 0.10000000)
		(0.78770950 0.14318150 0.10000000)
		(0.80446927 0.12809428 0.10000000)
		(0.82122905 0.11234556 0.10000000)
		(0.83798883 0.09601669 0.10000000)
		(0.85474860 0.07919198 0.10000000)
		(0.87150838 0.06195832 0.10000000)
		(0.88826816 0.04440471 0.10000000)
		(0.90502793 0.02662178 0.10000000)
		(0.92178771 0.00870138 0.10000000)
		(0.93854749 -0.00926395 0.10000000)
		(0.95530726 -0.02718145 0.10000000)
		(0.97206704 -0.04495858 0.10000000)
		(0.98882682 -0.06250354 0.10000000)
		(1.00558659 -0.07972573 0.10000000)
		(1.02234637 -0.09653621 0.10000000)
		(1.03910615 -0.11284817 0.10000000)
		(1.05586592 -0.12857738 0.10000000)
		(1.07262570 -0.14364261 0.10000000)
		(1.08938547 -0.15796605 0.10000000)
		(1.10614525 -0.17147375 0.10000000)
		(1.12290503 -0.18409595 0.10000000)
		(1.13966480 -0.19576747 0.10000000)
		(1.15642458 -0.20642804 0.10000000)
		(1.17318436 -0.21602259 0.10000000)
		(1.18994413 -0.22450159 0.10000000)
		(1.20670391 -0.23182126 0.10000000)
		(1.22346369 -0.23794378 0.10000000)
		(1.24022346 -0.24283755 0.10000000)
		(1.25698324 -0.24647729 0.10000000)
		(1.27374302 -0.24884421 0.10000000)
		(1.29050279 -0.24992608 0.10000000)
		(1.30726257 -0.24971732 0.10000000)
		(1.32402235 -0.24821901 0.10000000)
		(1.34078212 -0.24543887 0.10000000)
		(1.35754190 -0.24139128 0.10000000)
		(1.37430168 -0.23609712 0.10000000)
		(1.39106145 -0.22958375 0.10000000)
		(1.40782123 -0.22188479 0.10000000)
		(1.42458101 -0.21304001 0.10000000)
		(1.44134078 -0.20309507 0.10000000)
		(1.45810056 -0.19210134 0.10000000)
		(1.47486034 -0.18011559 0.10000000)
		(1.49162011 -0.16719971 0.10000000)
		(1.50837989 -0.15342040 0.10000000)
		(1.52513966 -0.13884882 0.10000000)
		(1.54189944 -0.12356022 0.10000000)
		(1.55865922 -0.10763354 0.10000000)
		(1.57541899 -0.09115104 0.10000000)
		(1.59217877 -0.07419782 0.10000000)
		(1.60893855 -0.05686145 0.10000000)
		(1.62569832 -0.03923144 0.10000000)
		(1.64245810 -0.02139884 0.10000000)
		(1.65921788 -0.00345573 0.10000000)
		(1.67597765 0.01450523 0.10000000)
		(1.69273743 0.03239128 0.10000000)
		(1.70949721 0.05011005 0.10000000)
		(1.72625698 0.06757006 0.10000000)
		(1.74301676 0.08468113 0.10000000)
		(1.75977654 0.10135490 0.10000000)
		(1.77653631 0.11750527 0.10000000)
		(1.79329609 0.13304884 0.10000000)
		(1.81005587 0.14790533 0.10000000)
		(1.82681564 0.16199803 0.10000000)
		(1.84357542 0.17525417 0.10000000)
		(1.86033520 0.18760528 0.10000000)
		(1.87709497 0.19898759 0.10000000)
		(1.89385475 0.20934231 0.10000000)
		(1.91061453 0.21861598 0.10000000)
		(1.92737430 0.22676070 0.10000000)
		(1.94413408 0.23373441 0.10000000)
		(1.96089385 0.23950111 0.10000000)
		(1.97765363 0.24403101 0.10000000)
		(1.99441341 0.24730072 0.10000000)
		(2.01117318 0.24929335 0.10000000)
		(2.02793296 0.24999861 0.10000000)
		(2.04469274 0.24941287 0.10000000)
		(2.06145251 0.24753915 0.10000000)
		(2.07821229 0.24438712 0.10000000)
		(2.09497207 0.23997306 0.10000000)
		(2.11173184 0.23431977 0.10000000)
		(2.12849162 0.22745643 0.10000000)
		(2.14525140 0.21941849 0.10000000)
		(2.16201117 0.21024747 0.10000000)
		(2.17877095 0.19999072 0.10000000)
		(2.19553073 0.18870120 0.10000000)
		(2.21229050 0.17643721 0.10000000)
		(2.22905028 0.16326210 0.10000000)
		(2.24581006 0.14924389 0.10000000)
		(2.26256983 0.13445497 0.10000000)
		(2.27932961 0.11897172 0.10000000)
		(2.29608939 0.10287410 0.10000000)
		(2.31284916 0.08624523 0.10000000)
		(2.32960894 0.06917098 0.10000000)
		(2.34636872 0.05173952 0.10000000)
		(2.36312849 0.03404089 0.10000000)
		(2.37988827 0.01616646 0.10000000)
		(2.39664804 -0.00179145 0.10000000)
		(2.41340782 -0.01974011 0.10000000)
		(2.43016760 -0.03758683 0.10000000)
		(2.44692737 -0.05523945 0.10000000)
		(2.46368715 -0.07260681 0.10000000)
		(2.48044693 -0.08959923 0.10000000)
		(2.49720670 -0.10612895 0.10000000)
		(2.51396648 -0.12211061 0.10000000)
		(2.53072626 -0.13746169 0.10000000)
		(2.54748603 -0.15210290 0.10000000)
		(2.56424581 -0.16595865 0.10000000)
		(2.58100559 -0.17895738 0.10000000)
		(2.59776536 -0.19103196 0.10000000)
		(2.61452514 -0.20212004 0.10000000)
		(2.63128492 -0.21216436 0.10000000)
		(2.64804469 -0.22111305 0.10000000)
		(2.66480447 -0.22891990 0.10000000)
		(2.68156425 -0.23554460 0.10000000)
		(2.69832402 -0.24095293 0.10000000)
		(2.71508380 -0.24511696 0.10000000)
		(2.73184358 -0.24801519 0.10000000)
		(2.74860335 -0.24963266 0.10000000)
		(2.76536313 -0.24996101 0.10000000)
		(2.78212291 -0.24899855 0.10000000)
		(2.79888268 -0.24675025 0.10000000)
		(2.81564246 -0.24322771 0.10000000)
		(2.83240223 -0.23844913 0.10000000)
		(2.84916201 -0.23243918 0.10000000)
		(2.86592179 -0.22522891 0.10000000)
		(2.88268156 -0.21685554 0.10000000)
		(2.89944134 -0.20736231 0.10000000)
		(2.91620112 -0.19679825 0.10000000)
		(2.93296089 -0.18521792 0.10000000)
		(2.95166480 -0.17472687 0.10000000)
		(2.97036872 -0.16534015 0.10000000)
		(2.98907263 -0.15705774 0.10000000)
		(3.00777654 -0.14987966 0.10000000)
		(3.02648045 -0.14380590 0.10000000)
		(3.04518436 -0.13883646 0.10000000)
		(3.06388827 -0.13497133 0.10000000)
		(3.08259218 -0.13221053 0.10000000)
		(3.10129609 -0.13055405 0.10000000)
		(3.12000000 -0.13000189 0.10000000)
		(3.14000000 -0.13000189 0.10000000)
		(3.16000000 -0.13000189 0.10000000)
		(3.18000000 -0.13000189 0.10000000)
		(3.20000000 -0.13000189 0.10000000)
		(3.22000000 -0.13000189 0.10000000)
		(3.24000000 -0.13000189 0.10000000)
		(3.26000000 -0.13000189 0.10000000)
		(3.28000000 -0.13000189 0.10000000)
		(3.30000000 -0.13000189 0.10000000)
		(3.32000000 -0.13000189 0.10000000)
		(3.34000000 -0.13000189 0.10000000)
		(3.36000000 -0.13000189 0.10000000)
		(3.38000000 -0.13000189 0.10000000)
		(3.40000000 -0.13000189 0.10000000)
		(3.42000000 -0.13000189 0.10000000)
		(3.44000000 -0.13000189 0.10000000)
		(3.46000000 -0.13000189 0.10000000)
		(3.48000000 -0.13000189 0.10000000)
		(3.50000000 -0.13000189 0.10000000)
		(3.52000000 -0.13000189 0.10000000)
		(3.54000000 -0.13000189 0.10000000)
		(3.56000000 -0.13000189 0.10000000)
		(3.58000000 -0.13000189 0.10000000)
		(3.60000000 -0.13000189 0.10000000)
		(3.62000000 -0.13000189 0.10000000)
		(3.64000000 -0.13000189 0.10000000)
		(3.66000000 -0.13000189 0.10000000)
		(3.68000000 -0.13000189 0.10000000)
		(3.70000000 -0.13000189 0.10000000)
		(3.72000000 -0.13000189 0.10000000)
		(3.74000000 -0.13000189 0.10000000)
		(3.76000000 -0.13000189 0.10000000)
		(3.78000000 -0.13000189 0.10000000)
		(3.80000000 -0.13000189 0.10000000)
		(3.82000000 -0.13000189 0.10000000)
		(3.84000000 -0.13000189 0.10000000)
		(3.86000000 -0.13000189 0.10000000)
		(3.88000000 -0.13000189 0.10000000)
		(3.90000000 -0.13000189 0.10000000)
		(3.92000000 -0.13000189 0.10000000)
		(3.94000000 -0.13000189 0.10000000)
		(3.96000000 -0.13000189 0.10000000)
		(3.98000000 -0.13000189 0.10000000)
		(4.00000000 -0.13000189 0.10000000)
	)
	polyLine 3 2
	(
		(-1.00000000 0.31276727 0.00000000)
		(-0.98000000 0.30932308 0.00000000)
		(-0.96000000 0.30587890 0.00000000)
		(-0.94000000 0.30243471 0.00000000)
		(-0.92000000 0.29899052 0.00000000)
		(-0.90000000 0.29554633 0.00000000)
		(-0.88000000 0.29210214 0.00000000)
		(-0.86000000 0.28865795 0.00000000)
		(-0.84000000 0.28521376 0.00000000)
		(-0.82000000 0.28176957 0.00000000)
		(-0.80000000 0.27832538 0.00000000)
		(-0.78000000 0.27488119 0.00000000)
		(-0.76000000 0.27143700 0.00000000)
		(-0.74000000 0.26799282 0.00000000)
		(-0.72000000 0.26454863 0.00000000)
		(-0.70000000 0.26110444 0.00000000)
		(-0.68000000 0.25766025 0.00000000)
		(-0.66000000 0.25421606 0.00000000)
		(-0.64000000 0.25077187 0.00000000)
		(-0.62000000 0.24732768 0.00000000)
		(-0.60000000 0.24388349 0.00000000)
		(-0.58000000 0.24043930 0.00000000)
		(-0.56000000 0.23699511 0.00000000)
		(-0.54000000 0.23355093 0.00000000)
		(-0.52000000 0.23010674 0.00000000)
		(-0.50000000 0.22666255 0.00000000)
		(-0.48000000 0.22321836 0.00000000)
		(-0.46000000 0.21977417 0.00000000)
		(-0.44000000 0.21632998 0.00000000)
		(-0.42000000 0.21288579 0.00000000)
		(-0.40000000 0.20944160 0.00000000)
		(-0.38000000 0.20599741 0.00000000)
		(-0.36000000 0.20255322 0.00000000)
		(-0.34000000 0.19910903 0.00000000)
		(-0.32000000 0.19566485 0.00000000)
		(-0.30000000 0.19222066 0.00000000)
		(-0.28000000 0.18877647 0.00000000)
		(-0.26000000 0.18533228 0.00000000)
		(-0.24000000 0.18188809 0.00000000)
		(-0.22000000 0.17844390 0.00000000)
		(-0.20000000 0.17499971 0.00000000)
		(-0.18000000 0.17155552 0.00000000)
		(-0.16000000 0.16811133 0.00000000)
		(-0.14000000 0.16466714 0.00000000)
		(-0.12000000 0.16122295 0.00000000)
		(-0.10000000 0.15777877 0.00000000)
		(-0.08162011 0.15447780 0.00000000)
		(-0.06324022 0.15457141 0.00000000)
		(-0.04486034 0.15805958 0.00000000)
		(-0.02648045 0.16494233 0.00000000)
		(-0.00810056 0.17521964 0.00000000)
		(0.01027933 0.18889152 0.00000000)
		(0.02865922 0.20595798 0.00000000)
		(0.04703911 0.22641900 0.00000000)
		(0.06541899 0.25027459 0.00000000)
		(0.08379888 0.27752475 0.00000000)
		(0.10055866 0.30826613 0.00000000)
		(0.11731844 0.33999763 0.00000000)
		(0.13407821 0.37255540 0.00000000)
		(0.15083799 0.40577130 0.00000000)
		(0.16759777 0.43947380 0.00000000)
		(0.18435754 0.47348886 0.00000000)
		(0.20111732 0.50764083 0.00000000)
		(0.21787709 0.54175334 0.00000000)
		(0.23463687 0.57565023 0.00000000)
		(0.25139665 0.60915646 0.00000000)
		(0.26815642 0.64209900 0.00000000)
		(0.28491620 0.67430773 0.00000000)
		(0.30167598 0.70561633 0.00000000)
		(0.31843575 0.73586311 0.00000000)
		(0.33519553 0.76489188 0.00000000)
		(0.35195531 0.79255274 0.00000000)
		(0.36871508 0.81870283 0.00000000)
		(0.38547486 0.84320712 0.00000000)
		(0.40223464 0.86593908 0.00000000)
		(0.41899441 0.88678130 0.00000000)
		(0.43575419 0.90562615 0.00000000)
		(0.45251397 0.92237634 0.00000000)
		(0.46927374 0.93694534 0.00000000)
		(0.48603352 0.94925793 0.00000000)
		(0.50279330 0.95925053 0.00000000)
		(0.51955307 0.96687153 0.00000000)
		(0.53631285 0.97208158 0.00000000)
		(0.55307263 0.97485378 0.00000000)
		(0.56983240 0.97517380 0.00000000)
		(0.58659218 0.97303999 0.00000000)
		(0.60335196 0.96846338 0.00000000)
		(0.62011173 0.96146759 0.00000000)
		(0.63687151 0.95208876 0.00000000)
		(0.65363128 0.94037531 0.00000000)
		(0.67039106 0.92638774 0.00000000)
		(0.68715084 0.91019828 0.00000000)
		(0.70391061 0.89189054 0.00000000)
		(0.72067039 0.87155904 0.00000000)
		(0.73743017 0.84930879 0.00000000)
		(0.75418994 0.82525469 0.00000000)
		(0.77094972 0.79952096 0.00000000)
		(0.78770950 0.77224048 0.00000000)
		(0.80446927 0.74355414 0.00000000)
		(0.82122905 0.71361007 0.00000000)
		(0.83798883 0.68256290 0.00000000)
		(0.85474860 0.65057297 0.00000000)
		(0.87150838 0.61780547 0.00000000)
		(0.88826816 0.58442961 0.00000000)
		(0.90502793 0.55061776 0.00000000)
		(0.92178771 0.51654451 0.00000000)
		(0.93854749 0.48238583 0.00000000)
		(0.95530726 0.44831811 0.00000000)
		(0.97206704 0.41451727 0.00000000)
		(0.98882682 0.38115787 0.00000000)
		(1.00558659 0.34841219 0.00000000)
		(1.02234637 0.31644930 0.00000000)
		(1.03910615 0.28543429 0.00000000)
		(1.05586592 0.25552731 0.00000000)
		(1.07262570 0.22688279 0.00000000)
		(1.08938547 0.19964867 0.00000000)
		(1.10614525 0.17396559 0.00000000)
		(1.12290503 0.14996616 0.00000000)
		(1.13966480 0.12777433 0.00000000)
		(1.15642458 0.10750470 0.00000000)
		(1.17318436 0.08926193 0.00000000)
		(1.18994413 0.07314024 0.00000000)
		(1.20670391 0.05922288 0.00000000)
		(1.22346369 0.04758172 0.00000000)
		(1.24022346 0.03827687 0.00000000)
		(1.25698324 0.03135639 0.00000000)
		(1.27374302 0.02685601 0.00000000)
		(1.29050279 0.02479897 0.00000000)
		(1.30726257 0.02519591 0.00000000)
		(1.32402235 0.02804475 0.00000000)
		(1.34078212 0.03333081 0.00000000)
		(1.35754190 0.04102677 0.00000000)
		(1.37430168 0.05109289 0.00000000)
		(1.39106145 0.06347720 0.00000000)
		(1.40782123 0.07811574 0.00000000)
		(1.42458101 0.09493291 0.00000000)
		(1.44134078 0.11384187 0.00000000)
		(1.45810056 0.13474498 0.00000000)
		(1.47486034 0.15753429 0.00000000)
		(1.49162011 0.18209211 0.00000000)
		(1.50837989 0.20829162 0.00000000)
		(1.52513966 0.23599753 0.00000000)
		(1.54189944 0.26506677 0.00000000)
		(1.55865922 0.29534922 0.00000000)
		(1.57541899 0.32668849 0.00000000)
		(1.59217877 0.35892276 0.00000000)
		(1.60893855 0.39188556 0.00000000)
		(1.62569832 0.42540667 0.00000000)
		(1.64245810 0.45931298 0.00000000)
		(1.65921788 0.49342940 0.00000000)
		(1.67597765 0.52757975 0.00000000)
		(1.69273743 0.56158768 0.00000000)
		(1.70949721 0.59527757 0.00000000)
		(1.72625698 0.62847543 0.00000000)
		(1.74301676 0.66100985 0.00000000)
		(1.75977654 0.69271280 0.00000000)
		(1.77653631 0.72342057 0.00000000)
		(1.79329609 0.75297458 0.00000000)
		(1.81005587 0.78122221 0.00000000)
		(1.82681564 0.80801760 0.00000000)
		(1.84357542 0.83322237 0.00000000)
		(1.86033520 0.85670635 0.00000000)
		(1.87709497 0.87834829 0.00000000)
		(1.89385475 0.89803641 0.00000000)
		(1.91061453 0.91566904 0.00000000)
		(1.92737430 0.93115514 0.00000000)
		(1.94413408 0.94441473 0.00000000)
		(1.96089385 0.95537933 0.00000000)
		(1.97765363 0.96399233 0.00000000)
		(1.99441341 0.97020924 0.00000000)
		(2.01117318 0.97399796 0.00000000)
		(2.02793296 0.97533894 0.00000000)
		(2.04469274 0.97422523 0.00000000)
		(2.06145251 0.97066259 0.00000000)
		(2.07821229 0.96466943 0.00000000)
		(2.09497207 0.95627668 0.00000000)
		(2.11173184 0.94552770 0.00000000)
		(2.12849162 0.93247798 0.00000000)
		(2.14525140 0.91719493 0.00000000)
		(2.16201117 0.89975745 0.00000000)
		(2.17877095 0.88025560 0.00000000)
		(2.19553073 0.85879009 0.00000000)
		(2.21229050 0.83547177 0.00000000)
		(2.22905028 0.81042105 0.00000000)
		(2.24581006 0.78376729 0.00000000)
		(2.26256983 0.75564815 0.00000000)
		(2.27932961 0.72620882 0.00000000)
		(2.29608939 0.69560134 0.00000000)
		(2.31284916 0.66398376 0.00000000)
		(2.32960894 0.63151936 0.00000000)
		(2.34636872 0.59837579 0.00000000)
		(2.36312849 0.56472419 0.00000000)
		(2.37988827 0.53073836 0.00000000)
		(2.39664804 0.49659380 0.00000000)
		(2.41340782 0.46246682 0.00000000)
		(2.43016760 0.42853366 0.00000000)
		(2.44692737 0.39496957 0.00000000)
		(2.46368715 0.36194785 0.00000000)