/*--------------------------------*- C++ -*----------------------------------*\\
/*--------------------------------*- C++ -*----------------------------------*\\
| =========                 |                                                 |
| \\\\      /  F ield         | OpenFOAM: The Open Source CFD Toolbox           |
|  \\\\    /   O peration     | Version:  v2012                                 |
|   \\\\  /    A nd           | Website:  www.openfoam.com                      |
|    \\\\/     M anipulation  |                                                 |
\\*---------------------------------------------------------------------------*/
FoamFile
{
    version     2.0;
    format      ascii;
    class       dictionary;
    object      blockMeshDict;
}
// * * * * * * * * * * * * * * * * * * * * * * * * * * * * * * * * * * * * * //

scale   0.01;

xmin -1;
xmax 5;
ymin 0;
ymax 0.5;
zmin 0;
zmax 0.1;

vertices
(
    (-1.00000000 -0.19703165 0.00000000)
    (4.00000000 -0.05658248 0.00000000)
    (4.00000000 0.44341752 0.00000000)
    (-1.00000000 0.30296835 0.00000000)
    (-1.00000000 -0.19703165 0.10000000)
    (4.00000000 -0.05658248 0.10000000)
    (4.00000000 0.44341752 0.10000000)
    (-1.00000000 0.30296835 0.10000000)
);

blocks
(
    hex (0 1 2 3 4 5 6 7) (200 20 1) simpleGrading (1 1 1)
);

edges
(
	polyLine 0 1
	(
		(-1.00000000 -0.19703165 0.00000000)
		(-0.98000000 -0.19703165 0.00000000)
		(-0.96000000 -0.19703165 0.00000000)
		(-0.94000000 -0.19703165 0.00000000)
		(-0.92000000 -0.19703165 0.00000000)
		(-0.90000000 -0.19703165 0.00000000)
		(-0.88000000 -0.19703165 0.00000000)
		(-0.86000000 -0.19703165 0.00000000)
		(-0.84000000 -0.19703165 0.00000000)
		(-0.82000000 -0.19703165 0.00000000)
		(-0.80000000 -0.19703165 0.00000000)
		(-0.78000000 -0.19703165 0.00000000)
		(-0.76000000 -0.19703165 0.00000000)
		(-0.74000000 -0.19703165 0.00000000)
		(-0.72000000 -0.19703165 0.00000000)
		(-0.70000000 -0.19703165 0.00000000)
		(-0.68000000 -0.19703165 0.00000000)
		(-0.66000000 -0.19703165 0.00000000)
		(-0.64000000 -0.19703165 0.00000000)
		(-0.62000000 -0.19703165 0.00000000)
		(-0.60000000 -0.19703165 0.00000000)
		(-0.58000000 -0.19703165 0.00000000)
		(-0.56000000 -0.19703165 0.00000000)
		(-0.54000000 -0.19703165 0.00000000)
		(-0.52000000 -0.19703165 0.00000000)
		(-0.50000000 -0.19703165 0.00000000)
		(-0.48000000 -0.19703165 0.00000000)
		(-0.46000000 -0.19703165 0.00000000)
		(-0.44000000 -0.19703165 0.00000000)
		(-0.42000000 -0.19703165 0.00000000)
		(-0.40000000 -0.19703165 0.00000000)
		(-0.38000000 -0.19703165 0.00000000)
		(-0.36000000 -0.19703165 0.00000000)
		(-0.34000000 -0.19703165 0.00000000)
		(-0.32000000 -0.19703165 0.00000000)
		(-0.30000000 -0.19703165 0.00000000)
		(-0.28000000 -0.19703165 0.00000000)
		(-0.26000000 -0.19703165 0.00000000)
		(-0.24000000 -0.19703165 0.00000000)
		(-0.22000000 -0.19703165 0.00000000)
		(-0.20000000 -0.19703165 0.00000000)
		(-0.18000000 -0.19703165 0.00000000)
		(-0.16000000 -0.19703165 0.00000000)
		(-0.14000000 -0.19703165 0.00000000)
		(-0.12000000 -0.19703165 0.00000000)
		(-0.10000000 -0.19703165 0.00000000)
		(-0.08162011 -0.19747986 0.00000000)
		(-0.06324022 -0.19882449 0.00000000)
		(-0.04486034 -0.20106553 0.00000000)
		(-0.02648045 -0.20420300 0.00000000)
		(-0.00810056 -0.20823689 0.00000000)
		(0.01027933 -0.21316719 0.00000000)
		(0.02865922 -0.21899391 0.00000000)
		(0.04703911 -0.22571705 0.00000000)
		(0.06541899 -0.23333662 0.00000000)
		(0.08379888 -0.24185259 0.00000000)
		(0.10055866 -0.24619931 0.00000000)
		(0.11731844 -0.24891533 0.00000000)
		(0.13407821 -0.24998266 0.00000000)
		(0.15083799 -0.24939423 0.00000000)
		(0.16759777 -0.24715395 0.00000000)
		(0.18435754 -0.24327665 0.00000000)
		(0.20111732 -0.23778801 0.00000000)
		(0.21787709 -0.23072439 0.00000000)
		(0.23463687 -0.22213257 0.00000000)
		(0.25139665 -0.21206946 0.00000000)
		(0.26815642 -0.20060171 0.00000000)
		(0.28491620 -0.18780528 0.00000000)
		(0.30167598 -0.17376493 0.00000000)
		(0.31843575 -0.15857365 0.00000000)
		(0.33519553 -0.14233206 0.00000000)
		(0.35195531 -0.12514773 0.00000000)
		(0.36871508 -0.10713449 0.00000000)
		(0.38547486 -0.08841165 0.00000000)
		(0.40223464 -0.06910322 0.00000000)
		(0.41899441 -0.04933708 0.00000000)
		(0.43575419 -0.02924416 0.00000000)
		(0.45251397 -0.00895754 0.00000000)
		(0.46927374 0.01138841 0.00000000)
		(0.48603352 0.03165893 0.00000000)
		(0.50279330 0.05171976 0.00000000)
		(0.51955307 0.07143802 0.00000000)
		(0.53631285 0.09068311 0.00000000)
		(0.55307263 0.10932757 0.00000000)
		(0.56983240 0.12724789 0.00000000)
		(0.58659218 0.14432540 0.00000000)
		(0.60335196 0.16044696 0.00000000)
		(0.62011173 0.17550581 0.00000000)
		(0.63687151 0.18940220 0.00000000)
		(0.65363128 0.20204409 0.00000000)
		(0.67039106 0.21334775 0.00000000)
		(0.68715084 0.22323830 0.00000000)
		(0.70391061 0.23165023 0.00000000)
		(0.72067039 0.23852784 0.00000000)
		(0.73743017 0.24382556 0.00000000)
		(0.75418994 0.24750830 0.00000000)
		(0.77094972 0.24955168 0.00000000)
		(0.78770950 0.24994216 0.00000000)
		(0.80446927 0.24867716 0.00000000)
		(0.82122905 0.24576504 0.00000000)
		(0.83798883 0.24122511 0.00000000)
		(0.85474860 0.23508742 0.00000000)
		(0.87150838 0.22739264 0.00000000)
		(0.88826816 0.21819173 0.00000000)
		(0.90502793 0.20754563 0.00000000)
		(0.92178771 0.19552486 0.00000000)
		(0.93854749 0.18220903 0.00000000)
		(0.95530726 0.16768635 0.00000000)
		(0.97206704 0.15205299 0.00000000)
		(0.98882682 0.13541252 0.00000000)
		(1.00558659 0.11787514 0.00000000)
		(1.02234637 0.09955703 0.00000000)
		(1.03910615 0.08057949 0.00000000)
		(1.05586592 0.06106824 0.00000000)
		(1.07262570 0.04115251 0.00000000)
		(1.08938547 0.02096420 0.00000000)
		(1.10614525 0.00063704 0.00000000)
		(1.12290503 -0.01969434 0.00000000)
		(1.13966480 -0.03989528 0.00000000)
		(1.15642458 -0.05983197 0.00000000)
		(1.17318436 -0.07937236 0.00000000)
		(1.18994413 -0.09838704 0.00000000)
		(1.20670391 -0.11675005 0.00000000)
		(1.22346369 -0.13433977 0.00000000)
		(1.24022346 -0.15103969 0.00000000)
		(1.25698324 -0.16673920 0.00000000)
		(1.27374302 -0.18133432 0.00000000)
		(1.29050279 -0.19472837 0.00000000)
		(1.30726257 -0.20683265 0.00000000)
		(1.32402235 -0.21756698 0.00000000)
		(1.34078212 -0.22686025 0.00000000)
		(1.35754190 -0.23465092 0.00000000)
		(1.37430168 -0.24088738 0.00000000)
		(1.39106145 -0.24552833 0.00000000)
		(1.40782123 -0.24854303 0.00000000)
		(1.42458101 -0.24991151 0.00000000)
		(1.44134078 -0.24962471 0.00000000)
		(1.45810056 -0.24768452 0.00000000)
		(1.47486034 -0.24410380 0.00000000)
		(1.49162011 -0.23890626 0.00000000)
		(1.50837989 -0.23212634 0.00000000)
		(1.52513966 -0.22380892 0.00000000)
		(1.54189944 -0.21400912 0.00000000)
		(1.55865922 -0.20279183 0.00000000)
		(1.57541899 -0.19023135 0.00000000)
		(1.59217877 -0.17641087 0.00000000)
		(1.60893855 -0.16142195 0.00000000)
		(1.62569832 -0.14536385 0.00000000)
		(1.64245810 -0.12834293 0.00000000)
		(1.65921788 -0.11047194 0.00000000)
		(1.67597765 -0.09186924 0.00000000)
		(1.69273743 -0.07265805 0.00000000)
		(1.70949721 -0.05296560 0.00000000)
		(1.72625698 -0.03292234 0.00000000)
		(1.74301676 -0.01266102 0.00000000)
		(1.75977654 0.00768416 0.00000000)
		(1.77653631 0.02797844 0.00000000)
		(1.79329609 0.04808741 0.00000000)
		(1.81005587 0.06787788 0.00000000)
		(1.82681564 0.08721876 0.00000000)
		(1.84357542 0.10598194 0.00000000)
		(1.86033520 0.12404316 0.00000000)
		(1.87709497 0.14128277 0.00000000)
		(1.89385475 0.15758661 0.00000000)
		(1.91061453 0.17284667 0.00000000)
		(1.92737430 0.18696189 0.00000000)
		(1.94413408 0.19983877 0.00000000)
		(1.96089385 0.21139202 0.00000000)
		(1.97765363 0.22154512 0.00000000)
		(1.99441341 0.23023082 0.00000000)
		(2.01117318 0.23739159 0.00000000)
		(2.02793296 0.24298000 0.00000000)
		(2.04469274 0.24695904 0.00000000)
		(2.06145251 0.24930235 0.00000000)
		(2.07821229 0.24999442 0.00000000)
		(2.09497207 0.24903065 0.00000000)
		(2.11173184 0.24641743 0.00000000)
		(2.12849162 0.24217207 0.00000000)
		(2.14525140 0.23632269 0.00000000)
		(2.16201117 0.22890803 0.00000000)
		(2.17877095 0.21997720 0.00000000)
		(2.19553073 0.20958936 0.00000000)
		(2.21229050 0.19781330 0.00000000)
		(2.22905028 0.18472704 0.00000000)
		(2.24581006 0.17041724 0.00000000)
		(2.26256983 0.15497868 0.00000000)
		(2.27932961 0.13851363 0.00000000)
		(2.29608939 0.12113113 0.00000000)
		(2.31284916 0.10294632 0.00000000)
		(2.32960894 0.08407966 0.00000000)
		(2.34636872 0.06465609 0.00000000)
		(2.36312849 0.04480427 0.00000000)
		(2.37988827 0.02465569 0.00000000)
		(2.39664804 0.00434381 0.00000000)
		(2.41340782 -0.01599685 0.00000000)
		(2.43016760 -0.03623155 0.00000000)
		(2.44692737 -0.05622627 0.00000000)
		(2.46368715 -0.07584857 0.00000000)
		(2.48044693 -0.09496850 0.00000000)
		(2.49720670 -0.11345940 0.00000000)
		(2.51396648 -0.13119881 0.00000000)
		(2.53072626 -0.14806923 0.00000000)
		(2.54748603 -0.16395891 0.00000000)
		(2.56424581 -0.17876261 0.00000000)
		(2.58100559 -0.19238229 0.00000000)
		(2.59776536 -0.20472772 0.00000000)
		(2.61452514 -0.21571714 0.00000000)
		(2.63128492 -0.22527777 0.00000000)
		(2.64804469 -0.23334627 0.00000000)
		(2.66480447 -0.23986921 0.00000000)
		(2.68156425 -0.24480338 0.00000000)
		(2.69832402 -0.24811610 0.00000000)
		(2.71508380 -0.24978542 0.00000000)
		(2.73184358 -0.24980030 0.00000000)
		(2.74860335 -0.24816063 0.00000000)
		(2.76536313 -0.24487728 0.00000000)
		(2.78212291 -0.23997199 0.00000000)
		(2.79888268 -0.23347724 0.00000000)
		(2.81564246 -0.22543606 0.00000000)
		(2.83240223 -0.21590172 0.00000000)
		(2.84916201 -0.20493735 0.00000000)
		(2.86592179 -0.19261558 0.00000000)
		(2.88268156 -0.17901803 0.00000000)
		(2.89944134 -0.16423476 0.00000000)
		(2.91620112 -0.14836368 0.00000000)
		(2.93296089 -0.13150992 0.00000000)
		(2.95166480 -0.11727370 0.00000000)
		(2.97036872 -0.10453604 0.00000000)
		(2.98907263 -0.09329693 0.00000000)
		(3.00777654 -0.08355636 0.00000000)
		(3.02648045 -0.07531434 0.00000000)
		(3.04518436 -0.06857087 0.00000000)
		(3.06388827 -0.06332595 0.00000000)
		(3.08259218 -0.05957958 0.00000000)
		(3.10129609 -0.05733176 0.00000000)
		(3.12000000 -0.05658248 0.00000000)
		(3.14000000 -0.05658248 0.00000000)
		(3.16000000 -0.05658248 0.00000000)
		(3.18000000 -0.05658248 0.00000000)
		(3.20000000 -0.05658248 0.00000000)
		(3.22000000 -0.05658248 0.00000000)
		(3.24000000 -0.05658248 0.00000000)
		(3.26000000 -0.05658248 0.00000000)
		(3.28000000 -0.05658248 0.00000000)
		(3.30000000 -0.05658248 0.00000000)
		(3.32000000 -0.05658248 0.00000000)
		(3.34000000 -0.05658248 0.00000000)
		(3.36000000 -0.05658248 0.00000000)
		(3.38000000 -0.05658248 0.00000000)
		(3.40000000 -0.05658248 0.00000000)
		(3.42000000 -0.05658248 0.00000000)
		(3.44000000 -0.05658248 0.00000000)
		(3.46000000 -0.05658248 0.00000000)
		(3.48000000 -0.05658248 0.00000000)
		(3.50000000 -0.05658248 0.00000000)
		(3.52000000 -0.05658248 0.00000000)
		(3.54000000 -0.05658248 0.00000000)
		(3.56000000 -0.05658248 0.00000000)
		(3.58000000 -0.05658248 0.00000000)
		(3.60000000 -0.05658248 0.00000000)
		(3.62000000 -0.05658248 0.00000000)
		(3.64000000 -0.05658248 0.00000000)
		(3.66000000 -0.05658248 0.00000000)
		(3.68000000 -0.05658248 0.00000000)
		(3.70000000 -0.05658248 0.00000000)
		(3.72000000 -0.05658248 0.00000000)
		(3.74000000 -0.05658248 0.00000000)
		(3.76000000 -0.05658248 0.00000000)
		(3.78000000 -0.05658248 0.00000000)
		(3.80000000 -0.05658248 0.00000000)
		(3.82000000 -0.05658248 0.00000000)
		(3.84000000 -0.05658248 0.00000000)
		(3.86000000 -0.05658248 0.00000000)
		(3.88000000 -0.05658248 0.00000000)
		(3.90000000 -0.05658248 0.00000000)
		(3.92000000 -0.05658248 0.00000000)
		(3.94000000 -0.05658248 0.00000000)
		(3.96000000 -0.05658248 0.00000000)
		(3.98000000 -0.05658248 0.00000000)
		(4.00000000 -0.05658248 0.00000000)
	)
	polyLine 4 5
	(
		(-1.00000000 -0.19703165 0.10000000)
		(-0.98000000 -0.19703165 0.10000000)
		(-0.96000000 -0.19703165 0.10000000)
		(-0.94000000 -0.19703165 0.10000000)
		(-0.92000000 -0.19703165 0.10000000)
		(-0.90000000 -0.19703165 0.10000000)
		(-0.88000000 -0.19703165 0.10000000)
		(-0.86000000 -0.19703165 0.10000000)
		(-0.84000000 -0.19703165 0.10000000)
		(-0.82000000 -0.19703165 0.10000000)
		(-0.80000000 -0.19703165 0.10000000)
		(-0.78000000 -0.19703165 0.10000000)
		(-0.76000000 -0.19703165 0.10000000)
		(-0.74000000 -0.19703165 0.10000000)
		(-0.72000000 -0.19703165 0.10000000)
		(-0.70000000 -0.19703165 0.10000000)
		(-0.68000000 -0.19703165 0.10000000)
		(-0.66000000 -0.19703165 0.10000000)
		(-0.64000000 -0.19703165 0.10000000)
		(-0.62000000 -0.19703165 0.10000000)
		(-0.60000000 -0.19703165 0.10000000)
		(-0.58000000 -0.19703165 0.10000000)
		(-0.56000000 -0.19703165 0.10000000)
		(-0.54000000 -0.19703165 0.10000000)
		(-0.52000000 -0.19703165 0.10000000)
		(-0.50000000 -0.19703165 0.10000000)
		(-0.48000000 -0.19703165 0.10000000)
		(-0.46000000 -0.19703165 0.10000000)
		(-0.44000000 -0.19703165 0.10000000)
		(-0.42000000 -0.19703165 0.10000000)
		(-0.40000000 -0.19703165 0.10000000)
		(-0.38000000 -0.19703165 0.10000000)
		(-0.36000000 -0.19703165 0.10000000)
		(-0.34000000 -0.19703165 0.10000000)
		(-0.32000000 -0.19703165 0.10000000)
		(-0.30000000 -0.19703165 0.10000000)
		(-0.28000000 -0.19703165 0.10000000)
		(-0.26000000 -0.19703165 0.10000000)
		(-0.24000000 -0.19703165 0.10000000)
		(-0.22000000 -0.19703165 0.10000000)
		(-0.20000000 -0.19703165 0.10000000)
		(-0.18000000 -0.19703165 0.10000000)
		(-0.16000000 -0.19703165 0.10000000)
		(-0.14000000 -0.19703165 0.10000000)
		(-0.12000000 -0.19703165 0.10000000)
		(-0.10000000 -0.19703165 0.10000000)
		(-0.08162011 -0.19747986 0.10000000)
		(-0.06324022 -0.19882449 0.10000000)
		(-0.04486034 -0.20106553 0.10000000)
		(-0.02648045 -0.20420300 0.10000000)
		(-0.00810056 -0.20823689 0.10000000)
		(0.01027933 -0.21316719 0.10000000)
		(0.02865922 -0.21899391 0.10000000)
		(0.04703911 -0.22571705 0.10000000)
		(0.06541899 -0.23333662 0.10000000)
		(0.08379888 -0.24185259 0.10000000)
		(0.10055866 -0.24619931 0.10000000)
		(0.11731844 -0.24891533 0.10000000)
		(0.13407821 -0.24998266 0.10000000)
		(0.15083799 -0.24939423 0.10000000)
		(0.16759777 -0.24715395 0.10000000)
		(0.18435754 -0.24327665 0.10000000)
		(0.20111732 -0.23778801 0.10000000)
		(0.21787709 -0.23072439 0.10000000)
		(0.23463687 -0.22213257 0.10000000)
		(0.25139665 -0.21206946 0.10000000)
		(0.26815642 -0.20060171 0.10000000)
		(0.28491620 -0.18780528 0.10000000)
		(0.30167598 -0.17376493 0.10000000)
		(0.31843575 -0.15857365 0.10000000)
		(0.33519553 -0.14233206 0.10000000)
		(0.35195531 -0.12514773 0.10000000)
		(0.36871508 -0.10713449 0.10000000)
		(0.38547486 -0.08841165 0.10000000)
		(0.40223464 -0.06910322 0.10000000)
		(0.41899441 -0.04933708 0.10000000)
		(0.43575419 -0.02924416 0.10000000)
		(0.45251397 -0.00895754 0.10000000)
		(0.46927374 0.01138841 0.10000000)
		(0.48603352 0.03165893 0.10000000)
		(0.50279330 0.05171976 0.10000000)
		(0.51955307 0.07143802 0.10000000)
		(0.53631285 0.09068311 0.10000000)
		(0.55307263 0.10932757 0.10000000)
		(0.56983240 0.12724789 0.10000000)
		(0.58659218 0.14432540 0.10000000)
		(0.60335196 0.16044696 0.10000000)
		(0.62011173 0.17550581 0.10000000)
		(0.63687151 0.18940220 0.10000000)
		(0.65363128 0.20204409 0.10000000)
		(0.67039106 0.21334775 0.10000000)
		(0.68715084 0.22323830 0.10000000)
		(0.70391061 0.23165023 0.10000000)
		(0.72067039 0.23852784 0.10000000)
		(0.73743017 0.24382556 0.10000000)
		(0.75418994 0.24750830 0.10000000)
		(0.77094972 0.24955168 0.10000000)
		(0.78770950 0.24994216 0.10000000)
		(0.80446927 0.24867716 0.10000000)
		(0.82122905 0.24576504 0.10000000)
		(0.83798883 0.24122511 0.10000000)
		(0.85474860 0.23508742 0.10000000)
		(0.87150838 0.22739264 0.10000000)
		(0.88826816 0.21819173 0.10000000)
		(0.90502793 0.20754563 0.10000000)
		(0.92178771 0.19552486 0.10000000)
		(0.93854749 0.18220903 0.10000000)
		(0.95530726 0.16768635 0.10000000)
		(0.97206704 0.15205299 0.10000000)
		(0.98882682 0.13541252 0.10000000)
		(1.00558659 0.11787514 0.10000000)
		(1.02234637 0.09955703 0.10000000)
		(1.03910615 0.08057949 0.10000000)
		(1.05586592 0.06106824 0.10000000)
		(1.07262570 0.04115251 0.10000000)
		(1.08938547 0.02096420 0.10000000)
		(1.10614525 0.00063704 0.10000000)
		(1.12290503 -0.01969434 0.10000000)
		(1.13966480 -0.03989528 0.10000000)
		(1.15642458 -0.05983197 0.10000000)
		(1.17318436 -0.07937236 0.10000000)
		(1.18994413 -0.09838704 0.10000000)
		(1.20670391 -0.11675005 0.10000000)
		(1.22346369 -0.13433977 0.10000000)
		(1.24022346 -0.15103969 0.10000000)
		(1.25698324 -0.16673920 0.10000000)
		(1.27374302 -0.18133432 0.10000000)
		(1.29050279 -0.19472837 0.10000000)
		(1.30726257 -0.20683265 0.10000000)
		(1.32402235 -0.21756698 0.10000000)
		(1.34078212 -0.22686025 0.10000000)
		(1.35754190 -0.23465092 0.10000000)
		(1.37430168 -0.24088738 0.10000000)
		(1.39106145 -0.24552833 0.10000000)
		(1.40782123 -0.24854303 0.10000000)
		(1.42458101 -0.24991151 0.10000000)
		(1.44134078 -0.24962471 0.10000000)
		(1.45810056 -0.24768452 0.10000000)
		(1.47486034 -0.24410380 0.10000000)
		(1.49162011 -0.23890626 0.10000000)
		(1.50837989 -0.23212634 0.10000000)
		(1.52513966 -0.22380892 0.10000000)
		(1.54189944 -0.21400912 0.10000000)
		(1.55865922 -0.20279183 0.10000000)
		(1.57541899 -0.19023135 0.10000000)
		(1.59217877 -0.17641087 0.10000000)
		(1.60893855 -0.16142195 0.10000000)
		(1.62569832 -0.14536385 0.10000000)
		(1.64245810 -0.12834293 0.10000000)
		(1.65921788 -0.11047194 0.10000000)
		(1.67597765 -0.09186924 0.10000000)
		(1.69273743 -0.07265805 0.10000000)
		(1.70949721 -0.05296560 0.10000000)
		(1.72625698 -0.03292234 0.10000000)
		(1.74301676 -0.01266102 0.10000000)
		(1.75977654 0.00768416 0.10000000)
		(1.77653631 0.02797844 0.10000000)
		(1.79329609 0.04808741 0.10000000)
		(1.81005587 0.06787788 0.10000000)
		(1.82681564 0.08721876 0.10000000)
		(1.84357542 0.10598194 0.10000000)
		(1.86033520 0.12404316 0.10000000)
		(1.87709497 0.14128277 0.10000000)
		(1.89385475 0.15758661 0.10000000)
		(1.91061453 0.17284667 0.10000000)
		(1.92737430 0.18696189 0.10000000)
		(1.94413408 0.19983877 0.10000000)
		(1.96089385 0.21139202 0.10000000)
		(1.97765363 0.22154512 0.10000000)
		(1.99441341 0.23023082 0.10000000)
		(2.01117318 0.23739159 0.10000000)
		(2.02793296 0.24298000 0.10000000)
		(2.04469274 0.24695904 0.10000000)
		(2.06145251 0.24930235 0.10000000)
		(2.07821229 0.24999442 0.10000000)
		(2.09497207 0.24903065 0.10000000)
		(2.11173184 0.24641743 0.10000000)
		(2.12849162 0.24217207 0.10000000)
		(2.14525140 0.23632269 0.10000000)
		(2.16201117 0.22890803 0.10000000)
		(2.17877095 0.21997720 0.10000000)
		(2.19553073 0.20958936 0.10000000)
		(2.21229050 0.19781330 0.10000000)
		(2.22905028 0.18472704 0.10000000)
		(2.24581006 0.17041724 0.10000000)
		(2.26256983 0.15497868 0.10000000)
		(2.27932961 0.13851363 0.10000000)
		(2.29608939 0.12113113 0.10000000)
		(2.31284916 0.10294632 0.10000000)
		(2.32960894 0.08407966 0.10000000)
		(2.34636872 0.06465609 0.10000000)
		(2.36312849 0.04480427 0.10000000)
		(2.37988827 0.02465569 0.10000000)
		(2.39664804 0.00434381 0.10000000)
		(2.41340782 -0.01599685 0.10000000)
		(2.43016760 -0.03623155 0.10000000)
		(2.44692737 -0.05622627 0.10000000)
		(2.46368715 -0.07584857 0.10000000)
		(2.48044693 -0.09496850 0.10000000)
		(2.49720670 -0.11345940 0.10000000)
		(2.51396648 -0.13119881 0.10000000)
		(2.53072626 -0.14806923 0.10000000)
		(2.54748603 -0.16395891 0.10000000)
		(2.56424581 -0.17876261 0.10000000)
		(2.58100559 -0.19238229 0.10000000)
		(2.59776536 -0.20472772 0.10000000)
		(2.61452514 -0.21571714 0.10000000)
		(2.63128492 -0.22527777 0.10000000)
		(2.64804469 -0.23334627 0.10000000)
		(2.66480447 -0.23986921 0.10000000)
		(2.68156425 -0.24480338 0.10000000)
		(2.69832402 -0.24811610 0.10000000)
		(2.71508380 -0.24978542 0.10000000)
		(2.73184358 -0.24980030 0.10000000)
		(2.74860335 -0.24816063 0.10000000)
		(2.76536313 -0.24487728 0.10000000)
		(2.78212291 -0.23997199 0.10000000)
		(2.79888268 -0.23347724 0.10000000)
		(2.81564246 -0.22543606 0.10000000)
		(2.83240223 -0.21590172 0.10000000)
		(2.84916201 -0.20493735 0.10000000)
		(2.86592179 -0.19261558 0.10000000)
		(2.88268156 -0.17901803 0.10000000)
		(2.89944134 -0.16423476 0.10000000)
		(2.91620112 -0.14836368 0.10000000)
		(2.93296089 -0.13150992 0.10000000)
		(2.95166480 -0.11727370 0.10000000)
		(2.97036872 -0.10453604 0.10000000)
		(2.98907263 -0.09329693 0.10000000)
		(3.00777654 -0.08355636 0.10000000)
		(3.02648045 -0.07531434 0.10000000)
		(3.04518436 -0.06857087 0.10000000)
		(3.06388827 -0.06332595 0.10000000)
		(3.08259218 -0.05957958 0.10000000)
		(3.10129609 -0.05733176 0.10000000)
		(3.12000000 -0.05658248 0.10000000)
		(3.14000000 -0.05658248 0.10000000)
		(3.16000000 -0.05658248 0.10000000)
		(3.18000000 -0.05658248 0.10000000)
		(3.20000000 -0.05658248 0.10000000)
		(3.22000000 -0.05658248 0.10000000)
		(3.24000000 -0.05658248 0.10000000)
		(3.26000000 -0.05658248 0.10000000)
		(3.28000000 -0.05658248 0.10000000)
		(3.30000000 -0.05658248 0.10000000)
		(3.32000000 -0.05658248 0.10000000)
		(3.34000000 -0.05658248 0.10000000)
		(3.36000000 -0.05658248 0.10000000)
		(3.38000000 -0.05658248 0.10000000)
		(3.40000000 -0.05658248 0.10000000)
		(3.42000000 -0.05658248 0.10000000)
		(3.44000000 -0.05658248 0.10000000)
		(3.46000000 -0.05658248 0.10000000)
		(3.48000000 -0.05658248 0.10000000)
		(3.50000000 -0.05658248 0.10000000)
		(3.52000000 -0.05658248 0.10000000)
		(3.54000000 -0.05658248 0.10000000)
		(3.56000000 -0.05658248 0.10000000)
		(3.58000000 -0.05658248 0.10000000)
		(3.60000000 -0.05658248 0.10000000)
		(3.62000000 -0.05658248 0.10000000)
		(3.64000000 -0.05658248 0.10000000)
		(3.66000000 -0.05658248 0.10000000)
		(3.68000000 -0.05658248 0.10000000)
		(3.70000000 -0.05658248 0.10000000)
		(3.72000000 -0.05658248 0.10000000)
		(3.74000000 -0.05658248 0.10000000)
		(3.76000000 -0.05658248 0.10000000)
		(3.78000000 -0.05658248 0.10000000)
		(3.80000000 -0.05658248 0.10000000)
		(3.82000000 -0.05658248 0.10000000)
		(3.84000000 -0.05658248 0.10000000)
		(3.86000000 -0.05658248 0.10000000)
		(3.88000000 -0.05658248 0.10000000)
		(3.90000000 -0.05658248 0.10000000)
		(3.92000000 -0.05658248 0.10000000)
		(3.94000000 -0.05658248 0.10000000)
		(3.96000000 -0.05658248 0.10000000)
		(3.98000000 -0.05658248 0.10000000)
		(4.00000000 -0.05658248 0.10000000)
	)
	polyLine 3 2
	(
		(-1.00000000 0.30296835 0.00000000)
		(-0.98000000 0.30461040 0.00000000)
		(-0.96000000 0.30625245 0.00000000)
		(-0.94000000 0.30789450 0.00000000)
		(-0.92000000 0.30953656 0.00000000)
		(-0.90000000 0.31117861 0.00000000)
		(-0.88000000 0.31282066 0.00000000)
		(-0.86000000 0.31446271 0.00000000)
		(-0.84000000 0.31610476 0.00000000)
		(-0.82000000 0.31774681 0.00000000)
		(-0.80000000 0.31938886 0.00000000)
		(-0.78000000 0.32103091 0.00000000)
		(-0.76000000 0.32267297 0.00000000)
		(-0.74000000 0.32431502 0.00000000)
		(-0.72000000 0.32595707 0.00000000)
		(-0.70000000 0.32759912 0.00000000)
		(-0.68000000 0.32924117 0.00000000)
		(-0.66000000 0.33088322 0.00000000)
		(-0.64000000 0.33252527 0.00000000)
		(-0.62000000 0.33416732 0.00000000)
		(-0.60000000 0.33580938 0.00000000)
		(-0.58000000 0.33745143 0.00000000)
		(-0.56000000 0.33909348 0.00000000)
		(-0.54000000 0.34073553 0.00000000)
		(-0.52000000 0.34237758 0.00000000)
		(-0.50000000 0.34401963 0.00000000)
		(-0.48000000 0.34566168 0.00000000)
		(-0.46000000 0.34730374 0.00000000)
		(-0.44000000 0.34894579 0.00000000)
		(-0.42000000 0.35058784 0.00000000)
		(-0.40000000 0.35222989 0.00000000)
		(-0.38000000 0.35387194 0.00000000)
		(-0.36000000 0.35551399 0.00000000)
		(-0.34000000 0.35715604 0.00000000)
		(-0.32000000 0.35879809 0.00000000)
		(-0.30000000 0.36044015 0.00000000)
		(-0.28000000 0.36208220 0.00000000)
		(-0.26000000 0.36372425 0.00000000)
		(-0.24000000 0.36536630 0.00000000)
		(-0.22000000 0.36700835 0.00000000)
		(-0.20000000 0.36865040 0.00000000)
		(-0.18000000 0.37029245 0.00000000)
		(-0.16000000 0.37193450 0.00000000)
		(-0.14000000 0.37357656 0.00000000)
		(-0.12000000 0.37521861 0.00000000)
		(-0.10000000 0.37686066 0.00000000)
		(-0.08162011 0.37818576 0.00000000)
		(-0.06324022 0.37877307 0.00000000)
		(-0.04486034 0.37862260 0.00000000)
		(-0.02648045 0.37773433 0.00000000)
		(-0.00810056 0.37610827 0.00000000)
		(0.01027933 0.37374443 0.00000000)
		(0.02865922 0.37064279 0.00000000)
		(0.04703911 0.36680337 0.00000000)
		(0.06541899 0.36222615 0.00000000)
		(0.08379888 0.35691115 0.00000000)
		(0.10055866 0.35433948 0.00000000)
		(0.11731844 0.35273258 0.00000000)
		(0.13407821 0.35210111 0.00000000)
		(0.15083799 0.35244924 0.00000000)
		(0.16759777 0.35377467 0.00000000)
		(0.18435754 0.35606863 0.00000000)
		(0.20111732 0.35931591 0.00000000)
		(0.21787709 0.36349500 0.00000000)
		(0.23463687 0.36857824 0.00000000)
		(0.25139665 0.37453194 0.00000000)
		(0.26815642 0.38131668 0.00000000)
		(0.28491620 0.38888752 0.00000000)
		(0.30167598 0.39719431 0.00000000)
		(0.31843575 0.40618203 0.00000000)
		(0.33519553 0.41579115 0.00000000)
		(0.35195531 0.42595802 0.00000000)
		(0.36871508 0.43661531 0.00000000)
		(0.38547486 0.44769243 0.00000000)
		(0.40223464 0.45911601 0.00000000)
		(0.41899441 0.47081038 0.00000000)
		(0.43575419 0.48269809 0.00000000)
		(0.45251397 0.49470039 0.00000000)
		(0.46927374 0.50673780 0.00000000)
		(0.48603352 0.51873058 0.00000000)
		(0.50279330 0.53059930 0.00000000)
		(0.51955307 0.54226535 0.00000000)
		(0.53631285 0.55365145 0.00000000)
		(0.55307263 0.56468219 0.00000000)
		(0.56983240 0.57528451 0.00000000)
		(0.58659218 0.58538819 0.00000000)
		(0.60335196 0.59492630 0.00000000)
		(0.62011173 0.60383566 0.00000000)
		(0.63687151 0.61205728 0.00000000)
		(0.65363128 0.61953668 0.00000000)
		(0.67039106 0.62622434 0.00000000)
		(0.68715084 0.63207595 0.00000000)
		(0.70391061 0.63705276 0.00000000)
		(0.72067039 0.64112180 0.00000000)
		(0.73743017 0.64425612 0.00000000)
		(0.75418994 0.64643497 0.00000000)
		(0.77094972 0.64764391 0.00000000)
		(0.78770950 0.64787493 0.00000000)
		(0.80446927 0.64712651 0.00000000)
		(0.82122905 0.64540360 0.00000000)
		(0.83798883 0.64271760 0.00000000)
		(0.85474860 0.63908633 0.00000000)
		(0.87150838 0.63453381 0.00000000)
		(0.88826816 0.62909022 0.00000000)
		(0.90502793 0.62279159 0.00000000)
		(0.92178771 0.61567967 0.00000000)
		(0.93854749 0.60780153 0.00000000)
		(0.95530726 0.59920938 0.00000000)
		(0.97206704 0.58996012 0.00000000)
		(0.98882682 0.58011500 0.00000000)
		(1.00558659 0.56973925 0.00000000)
		(1.02234637 0.55890158 0.00000000)
		(1.03910615 0.54767378 0.00000000)
		(1.05586592 0.53613021 0.00000000)
		(1.07262570 0.52434733 0.00000000)
		(1.08938547 0.51240319 0.00000000)
		(1.10614525 0.50037690 0.00000000)
		(1.12290503 0.48834811 0.00000000)
		(1.13966480 0.47639649 0.00000000)
		(1.15642458 0.46460122 0.00000000)
		(1.17318436 0.45304040 0.00000000)
		(1.18994413 0.44179063 0.00000000)
		(1.20670391 0.43092640 0.00000000)
		(1.22346369 0.42051968 0.00000000)
		(1.24022346 0.41063939 0.00000000)
		(1.25698324 0.40135099 0.00000000)
		(1.27374302 0.39271598 0.00000000)
		(1.29050279 0.38479157 0.00000000)
		(1.30726257 0.37763023 0.00000000)
		(1.32402235 0.37127941 0.00000000)
		(1.34078212 0.36578117 0.00000000)
		(1.35754190 0.36117193 0.00000000)
		(1.37430168 0.35748221 0.00000000)
		(1.39106145 0.35473645 0.00000000)
		(1.40782123 0.35295284 0.00000000)
		(1.42458101 0.35214320 0.00000000)
		(1.44134078 0.35231288 0.00000000)
		(1.45810056 0.35346077 0.00000000)
		(1.47486034 0.35557926 0.00000000)
		(1.49162011 0.35865431 0.00000000)
		(1.50837989 0.36266556 0.00000000)
		(1.52513966 0.36758645 0.00000000)
		(1.54189944 0.37338437 0.00000000)
		(1.55865922 0.38002093 0.00000000)
		(1.57541899 0.38745217 0.00000000)
		(1.59217877 0.39562887 0.00000000)
		(1.60893855 0.40449687 0.00000000)
		(1.62569832 0.41399743 0.00000000)
		(1.64245810 0.42406762 0.00000000)
		(1.65921788 0.43464076 0.00000000)
		(1.67597765 0.44564679 0.00000000)
		(1.69273743 0.45701284 0.00000000)
		(1.70949721 0.46866361 0.00000000)
		(1.72625698 0.48052194 0.00000000)
		(1.74301676 0.49250928 0.00000000)
		(1.75977654 0.50454623 0.00000000)
		(1.77653631 0.51655307 0.00000000)
		(1.79329609 0.52845027 0.00000000)
		(1.81005587 0.54015904 0.00000000)
		(1.82681564 0.55160181 0.00000000)
		(1.84357542 0.56270280 0.00000000)
		(1.86033520 0.57338847 0.00000000)
		(1.87709497 0.58358806 0.00000000)
		(1.89385475 0.59323401 0.00000000)
		(1.91061453 0.60226242 0.00000000)
		(1.92737430 0.61061350 0.00000000)
		(1.94413408 0.61823193 0.00000000)
		(1.96089385 0.62506726 0.00000000)
		(1.97765363 0.63107420 0.00000000)
		(1.99441341 0.63621298 0.00000000)
		(2.01117318 0.64044955 0.00000000)
		(2.02793296 0.64375586 0.00000000)
		(2.04469274 0.64611001 0.00000000)
		(2.06145251 0.64749640 0.00000000)
		(2.07821229 0.64790585 0.00000000)
		(2.09497207 0.64733565 0.00000000)
		(2.11173184 0.64578957 0.00000000)
		(2.12849162 0.64327786 0.00000000)
		(2.14525140 0.63981715 0.00000000)
		(2.16201117 0.63543037 0.00000000)
		(2.17877095 0.63014656 0.00000000)
		(2.19553073 0.62400074 0.00000000)
		(2.21229050 0.61703359 0.00000000)
		(2.22905028 0.60929128 0.00000000)
		(2.24581006 0.60082508 0.00000000)
		(2.26256983 0.59169106 0.00000000)
		(2.27932961 0.58194973 0.00000000)
		(2.29608939 0.57166561 0.00000000)
		(2.31284916 0.56090681 0.00000000)
		(2.32960894 0.54974460 0.00000000)
		(2.34636872 0.53825291 0.00000000)
		(2.36312849 0.52650785 0.00000000)
		(2.37988827 0.51458721 0.00000000)
		(2.39664804 0.50256996 0.00000000)
		(2.41340782 0.49053568 0.00000000)
		(2.43016760 0.47856409 0.00000000)
		(2.44692737 0.46673448 0.00000000)
		(2.46368715 0.45512521 0.00000000)