/*--------------------------------*- C++ -*----------------------------------*\\
/*--------------------------------*- C++ -*----------------------------------*\\
| =========                 |                                                 |
| \\\\      /  F ield         | OpenFOAM: The Open Source CFD Toolbox           |
|  \\\\    /   O peration     | Version:  v2012                                 |
|   \\\\  /    A nd           | Website:  www.openfoam.com                      |
|    \\\\/     M anipulation  |                                                 |
\\*---------------------------------------------------------------------------*/
FoamFile
{
    version     2.0;
    format      ascii;
    class       dictionary;
    object      blockMeshDict;
}
// * * * * * * * * * * * * * * * * * * * * * * * * * * * * * * * * * * * * * //

scale   0.01;

xmin -1;
xmax 5;
ymin 0;
ymax 0.5;
zmin 0;
zmax 0.1;

vertices
(
    (-1.00000000 -0.24550054 0.00000000)
    (4.00000000 -0.24999845 0.00000000)
    (4.00000000 0.25000155 0.00000000)
    (-1.00000000 0.25449946 0.00000000)
    (-1.00000000 -0.24550054 0.10000000)
    (4.00000000 -0.24999845 0.10000000)
    (4.00000000 0.25000155 0.10000000)
    (-1.00000000 0.25449946 0.10000000)
);

blocks
(
    hex (0 1 2 3 4 5 6 7) (200 20 1) simpleGrading (1 1 1)
);

edges
(
	polyLine 0 1
	(
		(-1.00000000 -0.24550054 0.00000000)
		(-0.98000000 -0.24550054 0.00000000)
		(-0.96000000 -0.24550054 0.00000000)
		(-0.94000000 -0.24550054 0.00000000)
		(-0.92000000 -0.24550054 0.00000000)
		(-0.90000000 -0.24550054 0.00000000)
		(-0.88000000 -0.24550054 0.00000000)
		(-0.86000000 -0.24550054 0.00000000)
		(-0.84000000 -0.24550054 0.00000000)
		(-0.82000000 -0.24550054 0.00000000)
		(-0.80000000 -0.24550054 0.00000000)
		(-0.78000000 -0.24550054 0.00000000)
		(-0.76000000 -0.24550054 0.00000000)
		(-0.74000000 -0.24550054 0.00000000)
		(-0.72000000 -0.24550054 0.00000000)
		(-0.70000000 -0.24550054 0.00000000)
		(-0.68000000 -0.24550054 0.00000000)
		(-0.66000000 -0.24550054 0.00000000)
		(-0.64000000 -0.24550054 0.00000000)
		(-0.62000000 -0.24550054 0.00000000)
		(-0.60000000 -0.24550054 0.00000000)
		(-0.58000000 -0.24550054 0.00000000)
		(-0.56000000 -0.24550054 0.00000000)
		(-0.54000000 -0.24550054 0.00000000)
		(-0.52000000 -0.24550054 0.00000000)
		(-0.50000000 -0.24550054 0.00000000)
		(-0.48000000 -0.24550054 0.00000000)
		(-0.46000000 -0.24550054 0.00000000)
		(-0.44000000 -0.24550054 0.00000000)
		(-0.42000000 -0.24550054 0.00000000)
		(-0.40000000 -0.24550054 0.00000000)
		(-0.38000000 -0.24550054 0.00000000)
		(-0.36000000 -0.24550054 0.00000000)
		(-0.34000000 -0.24550054 0.00000000)
		(-0.32000000 -0.24550054 0.00000000)
		(-0.30000000 -0.24550054 0.00000000)
		(-0.28000000 -0.24550054 0.00000000)
		(-0.26000000 -0.24550054 0.00000000)
		(-0.24000000 -0.24550054 0.00000000)
		(-0.22000000 -0.24550054 0.00000000)
		(-0.20000000 -0.24550054 0.00000000)
		(-0.18000000 -0.24550054 0.00000000)
		(-0.16000000 -0.24550054 0.00000000)
		(-0.14000000 -0.24550054 0.00000000)
		(-0.12000000 -0.24550054 0.00000000)
		(-0.10000000 -0.24550054 0.00000000)
		(-0.08162011 -0.24551108 0.00000000)
		(-0.06324022 -0.24554270 0.00000000)
		(-0.04486034 -0.24559540 0.00000000)
		(-0.02648045 -0.24566918 0.00000000)
		(-0.00810056 -0.24576404 0.00000000)
		(0.01027933 -0.24587998 0.00000000)
		(0.02865922 -0.24601700 0.00000000)
		(0.04703911 -0.24617510 0.00000000)
		(0.06541899 -0.24635428 0.00000000)
		(0.08379888 -0.24655454 0.00000000)
		(0.10055866 -0.24298469 0.00000000)
		(0.11731844 -0.23818200 0.00000000)
		(0.13407821 -0.23217085 0.00000000)
		(0.15083799 -0.22498172 0.00000000)
		(0.16759777 -0.21665111 0.00000000)
		(0.18435754 -0.20722127 0.00000000)
		(0.20111732 -0.19674005 0.00000000)
		(0.21787709 -0.18526063 0.00000000)
		(0.23463687 -0.17284124 0.00000000)
		(0.25139665 -0.15954492 0.00000000)
		(0.26815642 -0.14543910 0.00000000)
		(0.28491620 -0.13059538 0.00000000)
		(0.30167598 -0.11508904 0.00000000)
		(0.31843575 -0.09899878 0.00000000)
		(0.33519553 -0.08240623 0.00000000)
		(0.35195531 -0.06539558 0.00000000)
		(0.36871508 -0.04805312 0.00000000)
		(0.38547486 -0.03046686 0.00000000)
		(0.40223464 -0.01272602 0.00000000)
		(0.41899441 0.00507939 0.00000000)
		(0.43575419 0.02285903 0.00000000)
		(0.45251397 0.04052269 0.00000000)
		(0.46927374 0.05798075 0.00000000)
		(0.48603352 0.07514463 0.00000000)
		(0.50279330 0.09192725 0.00000000)
		(0.51955307 0.10824346 0.00000000)
		(0.53631285 0.12401047 0.00000000)
		(0.55307263 0.13914829 0.00000000)
		(0.56983240 0.15358010 0.00000000)
		(0.58659218 0.16723270 0.00000000)
		(0.60335196 0.18003681 0.00000000)
		(0.62011173 0.19192746 0.00000000)
		(0.63687151 0.20284433 0.00000000)
		(0.65363128 0.21273203 0.00000000)
		(0.67039106 0.22154038 0.00000000)
		(0.68715084 0.22922471 0.00000000)
		(0.70391061 0.23574601 0.00000000)
		(0.72067039 0.24107121 0.00000000)
		(0.73743017 0.24517328 0.00000000)
		(0.75418994 0.24803141 0.00000000)
		(0.77094972 0.24963110 0.00000000)
		(0.78770950 0.24996424 0.00000000)
		(0.80446927 0.24902913 0.00000000)
		(0.82122905 0.24683052 0.00000000)
		(0.83798883 0.24337956 0.00000000)
		(0.85474860 0.23869377 0.00000000)
		(0.87150838 0.23279691 0.00000000)
		(0.88826816 0.22571891 0.00000000)
		(0.90502793 0.21749568 0.00000000)
		(0.92178771 0.20816893 0.00000000)
		(0.93854749 0.19778600 0.00000000)
		(0.95530726 0.18639956 0.00000000)
		(0.97206704 0.17406738 0.00000000)
		(0.98882682 0.16085203 0.00000000)
		(1.00558659 0.14682057 0.00000000)
		(1.02234637 0.13204418 0.00000000)
		(1.03910615 0.11659783 0.00000000)
		(1.05586592 0.10055991 0.00000000)
		(1.07262570 0.08401177 0.00000000)
		(1.08938547 0.06703738 0.00000000)
		(1.10614525 0.04972286 0.00000000)
		(1.12290503 0.03215606 0.00000000)
		(1.13966480 0.01442612 0.00000000)
		(1.15642458 -0.00337702 0.00000000)
		(1.17318436 -0.02116303 0.00000000)
		(1.18994413 -0.03884166 0.00000000)
		(1.20670391 -0.05632323 0.00000000)
		(1.22346369 -0.07351902 0.00000000)
		(1.24022346 -0.09034180 0.00000000)
		(1.25698324 -0.10670621 0.00000000)
		(1.27374302 -0.12252922 0.00000000)
		(1.29050279 -0.13773056 0.00000000)
		(1.30726257 -0.15223309 0.00000000)
		(1.32402235 -0.16596324 0.00000000)
		(1.34078212 -0.17885133 0.00000000)
		(1.35754190 -0.19083199 0.00000000)
		(1.37430168 -0.20184442 0.00000000)
		(1.39106145 -0.21183275 0.00000000)
		(1.40782123 -0.22074630 0.00000000)
		(1.42458101 -0.22853985 0.00000000)
		(1.44134078 -0.23517385 0.00000000)
		(1.45810056 -0.24061465 0.00000000)
		(1.47486034 -0.24483464 0.00000000)
		(1.49162011 -0.24781241 0.00000000)
		(1.50837989 -0.24953286 0.00000000)
		(1.52513966 -0.24998724 0.00000000)
		(1.54189944 -0.24917326 0.00000000)
		(1.55865922 -0.24709505 0.00000000)
		(1.57541899 -0.24376315 0.00000000)
		(1.59217877 -0.23919447 0.00000000)
		(1.60893855 -0.23341218 0.00000000)
		(1.62569832 -0.22644563 0.00000000)
		(1.64245810 -0.21833015 0.00000000)
		(1.65921788 -0.20910694 0.00000000)
		(1.67597765 -0.19882277 0.00000000)
		(1.69273743 -0.18752984 0.00000000)
		(1.70949721 -0.17528543 0.00000000)
		(1.72625698 -0.16215168 0.00000000)
		(1.74301676 -0.14819522 0.00000000)
		(1.75977654 -0.13348685 0.00000000)
		(1.77653631 -0.11810122 0.00000000)
		(1.79329609 -0.10211637 0.00000000)
		(1.81005587 -0.08561341 0.00000000)
		(1.82681564 -0.06867607 0.00000000)
		(1.84357542 -0.05139030 0.00000000)
		(1.86033520 -0.03384378 0.00000000)
		(1.87709497 -0.01612555 0.00000000)
		(1.89385475 0.00167450 0.00000000)
		(1.91061453 0.01946605 0.00000000)
		(1.92737430 0.03715884 0.00000000)
		(1.94413408 0.05466309 0.00000000)
		(1.96089385 0.07189000 0.00000000)
		(1.97765363 0.08875216 0.00000000)
		(1.99441341 0.10516401 0.00000000)
		(2.01117318 0.12104230 0.00000000)
		(2.02793296 0.13630645 0.00000000)
		(2.04469274 0.15087902 0.00000000)
		(2.06145251 0.16468608 0.00000000)
		(2.07821229 0.17765756 0.00000000)
		(2.09497207 0.18972766 0.00000000)
		(2.11173184 0.20083514 0.00000000)
		(2.12849162 0.21092364 0.00000000)
		(2.14525140 0.21994198 0.00000000)
		(2.16201117 0.22784439 0.00000000)
		(2.17877095 0.23459079 0.00000000)
		(2.19553073 0.24014694 0.00000000)
		(2.21229050 0.24448465 0.00000000)
		(2.22905028 0.24758192 0.00000000)
		(2.24581006 0.24942303 0.00000000)
		(2.26256983 0.24999864 0.00000000)
		(2.27932961 0.24930583 0.00000000)
		(2.29608939 0.24734812 0.00000000)
		(2.31284916 0.24413543 0.00000000)
		(2.32960894 0.23968407 0.00000000)
		(2.34636872 0.23401662 0.00000000)
		(2.36312849 0.22716184 0.00000000)
		(2.37988827 0.21915451 0.00000000)
		(2.39664804 0.21003525 0.00000000)
		(2.41340782 0.19985033 0.00000000)
		(2.43016760 0.18865143 0.00000000)
		(2.44692737 0.17649536 0.00000000)
		(2.46368715 0.16344381 0.00000000)
		(2.48044693 0.14956299 0.00000000)
		(2.49720670 0.13492334 0.00000000)
		(2.51396648 0.11959912 0.00000000)
		(2.53072626 0.10366809 0.00000000)
		(2.54748603 0.08721108 0.00000000)
		(2.56424581 0.07031158 0.00000000)
		(2.58100559 0.05305535 0.00000000)
		(2.59776536 0.03552992 0.00000000)
		(2.61452514 0.01782423 0.00000000)
		(2.63128492 0.00002810 0.00000000)
		(2.64804469 -0.01776817 0.00000000)
		(2.66480447 -0.03547428 0.00000000)
		(2.68156425 -0.05300042 0.00000000)
		(2.69832402 -0.07025764 0.00000000)
		(2.71508380 -0.08715840 0.00000000)
		(2.73184358 -0.10361694 0.00000000)
		(2.74860335 -0.11954976 0.00000000)
		(2.76536313 -0.13487601 0.00000000)
		(2.78212291 -0.14951795 0.00000000)
		(2.79888268 -0.16340127 0.00000000)
		(2.81564246 -0.17645555 0.00000000)
		(2.83240223 -0.18861454 0.00000000)
		(2.84916201 -0.19981655 0.00000000)
		(2.86592179 -0.21000476 0.00000000)
		(2.88268156 -0.21912745 0.00000000)
		(2.89944134 -0.22713836 0.00000000)
		(2.91620112 -0.23399684 0.00000000)
		(2.93296089 -0.23966808 0.00000000)
		(2.95166480 -0.24163085 0.00000000)
		(2.97036872 -0.24338702 0.00000000)
		(2.98907263 -0.24493657 0.00000000)
		(3.00777654 -0.24627952 0.00000000)
		(3.02648045 -0.24741586 0.00000000)
		(3.04518436 -0.24834559 0.00000000)
		(3.06388827 -0.24906872 0.00000000)
		(3.08259218 -0.24958524 0.00000000)
		(3.10129609 -0.24989515 0.00000000)
		(3.12000000 -0.24999845 0.00000000)
		(3.14000000 -0.24999845 0.00000000)
		(3.16000000 -0.24999845 0.00000000)
		(3.18000000 -0.24999845 0.00000000)
		(3.20000000 -0.24999845 0.00000000)
		(3.22000000 -0.24999845 0.00000000)
		(3.24000000 -0.24999845 0.00000000)
		(3.26000000 -0.24999845 0.00000000)
		(3.28000000 -0.24999845 0.00000000)
		(3.30000000 -0.24999845 0.00000000)
		(3.32000000 -0.24999845 0.00000000)
		(3.34000000 -0.24999845 0.00000000)
		(3.36000000 -0.24999845 0.00000000)
		(3.38000000 -0.24999845 0.00000000)
		(3.40000000 -0.24999845 0.00000000)
		(3.42000000 -0.24999845 0.00000000)
		(3.44000000 -0.24999845 0.00000000)
		(3.46000000 -0.24999845 0.00000000)
		(3.48000000 -0.24999845 0.00000000)
		(3.50000000 -0.24999845 0.00000000)
		(3.52000000 -0.24999845 0.00000000)
		(3.54000000 -0.24999845 0.00000000)
		(3.56000000 -0.24999845 0.00000000)
		(3.58000000 -0.24999845 0.00000000)
		(3.60000000 -0.24999845 0.00000000)
		(3.62000000 -0.24999845 0.00000000)
		(3.64000000 -0.24999845 0.00000000)
		(3.66000000 -0.24999845 0.00000000)
		(3.68000000 -0.24999845 0.00000000)
		(3.70000000 -0.24999845 0.00000000)
		(3.72000000 -0.24999845 0.00000000)
		(3.74000000 -0.24999845 0.00000000)
		(3.76000000 -0.24999845 0.00000000)
		(3.78000000 -0.24999845 0.00000000)
		(3.80000000 -0.24999845 0.00000000)
		(3.82000000 -0.24999845 0.00000000)
		(3.84000000 -0.24999845 0.00000000)
		(3.86000000 -0.24999845 0.00000000)
		(3.88000000 -0.24999845 0.00000000)
		(3.90000000 -0.24999845 0.00000000)
		(3.92000000 -0.24999845 0.00000000)
		(3.94000000 -0.24999845 0.00000000)
		(3.96000000 -0.24999845 0.00000000)
		(3.98000000 -0.24999845 0.00000000)
		(4.00000000 -0.24999845 0.00000000)
	)
	polyLine 4 5
	(
		(-1.00000000 -0.24550054 0.10000000)
		(-0.98000000 -0.24550054 0.10000000)
		(-0.96000000 -0.24550054 0.10000000)
		(-0.94000000 -0.24550054 0.10000000)
		(-0.92000000 -0.24550054 0.10000000)
		(-0.90000000 -0.24550054 0.10000000)
		(-0.88000000 -0.24550054 0.10000000)
		(-0.86000000 -0.24550054 0.10000000)
		(-0.84000000 -0.24550054 0.10000000)
		(-0.82000000 -0.24550054 0.10000000)
		(-0.80000000 -0.24550054 0.10000000)
		(-0.78000000 -0.24550054 0.10000000)
		(-0.76000000 -0.24550054 0.10000000)
		(-0.74000000 -0.24550054 0.10000000)
		(-0.72000000 -0.24550054 0.10000000)
		(-0.70000000 -0.24550054 0.10000000)
		(-0.68000000 -0.24550054 0.10000000)
		(-0.66000000 -0.24550054 0.10000000)
		(-0.64000000 -0.24550054 0.10000000)
		(-0.62000000 -0.24550054 0.10000000)
		(-0.60000000 -0.24550054 0.10000000)
		(-0.58000000 -0.24550054 0.10000000)
		(-0.56000000 -0.24550054 0.10000000)
		(-0.54000000 -0.24550054 0.10000000)
		(-0.52000000 -0.24550054 0.10000000)
		(-0.50000000 -0.24550054 0.10000000)
		(-0.48000000 -0.24550054 0.10000000)
		(-0.46000000 -0.24550054 0.10000000)
		(-0.44000000 -0.24550054 0.10000000)
		(-0.42000000 -0.24550054 0.10000000)
		(-0.40000000 -0.24550054 0.10000000)
		(-0.38000000 -0.24550054 0.10000000)
		(-0.36000000 -0.24550054 0.10000000)
		(-0.34000000 -0.24550054 0.10000000)
		(-0.32000000 -0.24550054 0.10000000)
		(-0.30000000 -0.24550054 0.10000000)
		(-0.28000000 -0.24550054 0.10000000)
		(-0.26000000 -0.24550054 0.10000000)
		(-0.24000000 -0.24550054 0.10000000)
		(-0.22000000 -0.24550054 0.10000000)
		(-0.20000000 -0.24550054 0.10000000)
		(-0.18000000 -0.24550054 0.10000000)
		(-0.16000000 -0.24550054 0.10000000)
		(-0.14000000 -0.24550054 0.10000000)
		(-0.12000000 -0.24550054 0.10000000)
		(-0.10000000 -0.24550054 0.10000000)
		(-0.08162011 -0.24551108 0.10000000)
		(-0.06324022 -0.24554270 0.10000000)
		(-0.04486034 -0.24559540 0.10000000)
		(-0.02648045 -0.24566918 0.10000000)
		(-0.00810056 -0.24576404 0.10000000)
		(0.01027933 -0.24587998 0.10000000)
		(0.02865922 -0.24601700 0.10000000)
		(0.04703911 -0.24617510 0.10000000)
		(0.06541899 -0.24635428 0.10000000)
		(0.08379888 -0.24655454 0.10000000)
		(0.10055866 -0.24298469 0.10000000)
		(0.11731844 -0.23818200 0.10000000)
		(0.13407821 -0.23217085 0.10000000)
		(0.15083799 -0.22498172 0.10000000)
		(0.16759777 -0.21665111 0.10000000)
		(0.18435754 -0.20722127 0.10000000)
		(0.20111732 -0.19674005 0.10000000)
		(0.21787709 -0.18526063 0.10000000)
		(0.23463687 -0.17284124 0.10000000)
		(0.25139665 -0.15954492 0.10000000)
		(0.26815642 -0.14543910 0.10000000)
		(0.28491620 -0.13059538 0.10000000)
		(0.30167598 -0.11508904 0.10000000)
		(0.31843575 -0.09899878 0.10000000)
		(0.33519553 -0.08240623 0.10000000)
		(0.35195531 -0.06539558 0.10000000)
		(0.36871508 -0.04805312 0.10000000)
		(0.38547486 -0.03046686 0.10000000)
		(0.40223464 -0.01272602 0.10000000)
		(0.41899441 0.00507939 0.10000000)
		(0.43575419 0.02285903 0.10000000)
		(0.45251397 0.04052269 0.10000000)
		(0.46927374 0.05798075 0.10000000)
		(0.48603352 0.07514463 0.10000000)
		(0.50279330 0.09192725 0.10000000)
		(0.51955307 0.10824346 0.10000000)
		(0.53631285 0.12401047 0.10000000)
		(0.55307263 0.13914829 0.10000000)
		(0.56983240 0.15358010 0.10000000)
		(0.58659218 0.16723270 0.10000000)
		(0.60335196 0.18003681 0.10000000)
		(0.62011173 0.19192746 0.10000000)
		(0.63687151 0.20284433 0.10000000)
		(0.65363128 0.21273203 0.10000000)
		(0.67039106 0.22154038 0.10000000)
		(0.68715084 0.22922471 0.10000000)
		(0.70391061 0.23574601 0.10000000)
		(0.72067039 0.24107121 0.10000000)
		(0.73743017 0.24517328 0.10000000)
		(0.75418994 0.24803141 0.10000000)
		(0.77094972 0.24963110 0.10000000)
		(0.78770950 0.24996424 0.10000000)
		(0.80446927 0.24902913 0.10000000)
		(0.82122905 0.24683052 0.10000000)
		(0.83798883 0.24337956 0.10000000)
		(0.85474860 0.23869377 0.10000000)
		(0.87150838 0.23279691 0.10000000)
		(0.88826816 0.22571891 0.10000000)
		(0.90502793 0.21749568 0.10000000)
		(0.92178771 0.20816893 0.10000000)
		(0.93854749 0.19778600 0.10000000)
		(0.95530726 0.18639956 0.10000000)
		(0.97206704 0.17406738 0.10000000)
		(0.98882682 0.16085203 0.10000000)
		(1.00558659 0.14682057 0.10000000)
		(1.02234637 0.13204418 0.10000000)
		(1.03910615 0.11659783 0.10000000)
		(1.05586592 0.10055991 0.10000000)
		(1.07262570 0.08401177 0.10000000)
		(1.08938547 0.06703738 0.10000000)
		(1.10614525 0.04972286 0.10000000)
		(1.12290503 0.03215606 0.10000000)
		(1.13966480 0.01442612 0.10000000)
		(1.15642458 -0.00337702 0.10000000)
		(1.17318436 -0.02116303 0.10000000)
		(1.18994413 -0.03884166 0.10000000)
		(1.20670391 -0.05632323 0.10000000)
		(1.22346369 -0.07351902 0.10000000)
		(1.24022346 -0.09034180 0.10000000)
		(1.25698324 -0.10670621 0.10000000)
		(1.27374302 -0.12252922 0.10000000)
		(1.29050279 -0.13773056 0.10000000)
		(1.30726257 -0.15223309 0.10000000)
		(1.32402235 -0.16596324 0.10000000)
		(1.34078212 -0.17885133 0.10000000)
		(1.35754190 -0.19083199 0.10000000)
		(1.37430168 -0.20184442 0.10000000)
		(1.39106145 -0.21183275 0.10000000)
		(1.40782123 -0.22074630 0.10000000)
		(1.42458101 -0.22853985 0.10000000)
		(1.44134078 -0.23517385 0.10000000)
		(1.45810056 -0.24061465 0.10000000)
		(1.47486034 -0.24483464 0.10000000)
		(1.49162011 -0.24781241 0.10000000)
		(1.50837989 -0.24953286 0.10000000)
		(1.52513966 -0.24998724 0.10000000)
		(1.54189944 -0.24917326 0.10000000)
		(1.55865922 -0.24709505 0.10000000)
		(1.57541899 -0.24376315 0.10000000)
		(1.59217877 -0.23919447 0.10000000)
		(1.60893855 -0.23341218 0.10000000)
		(1.62569832 -0.22644563 0.10000000)
		(1.64245810 -0.21833015 0.10000000)
		(1.65921788 -0.20910694 0.10000000)
		(1.67597765 -0.19882277 0.10000000)
		(1.69273743 -0.18752984 0.10000000)
		(1.70949721 -0.17528543 0.10000000)
		(1.72625698 -0.16215168 0.10000000)
		(1.74301676 -0.14819522 0.10000000)
		(1.75977654 -0.13348685 0.10000000)
		(1.77653631 -0.11810122 0.10000000)
		(1.79329609 -0.10211637 0.10000000)
		(1.81005587 -0.08561341 0.10000000)
		(1.82681564 -0.06867607 0.10000000)
		(1.84357542 -0.05139030 0.10000000)
		(1.86033520 -0.03384378 0.10000000)
		(1.87709497 -0.01612555 0.10000000)
		(1.89385475 0.00167450 0.10000000)
		(1.91061453 0.01946605 0.10000000)
		(1.92737430 0.03715884 0.10000000)
		(1.94413408 0.05466309 0.10000000)
		(1.96089385 0.07189000 0.10000000)
		(1.97765363 0.08875216 0.10000000)
		(1.99441341 0.10516401 0.10000000)
		(2.01117318 0.12104230 0.10000000)
		(2.02793296 0.13630645 0.10000000)
		(2.04469274 0.15087902 0.10000000)
		(2.06145251 0.16468608 0.10000000)
		(2.07821229 0.17765756 0.10000000)
		(2.09497207 0.18972766 0.10000000)
		(2.11173184 0.20083514 0.10000000)
		(2.12849162 0.21092364 0.10000000)
		(2.14525140 0.21994198 0.10000000)
		(2.16201117 0.22784439 0.10000000)
		(2.17877095 0.23459079 0.10000000)
		(2.19553073 0.24014694 0.10000000)
		(2.21229050 0.24448465 0.10000000)
		(2.22905028 0.24758192 0.10000000)
		(2.24581006 0.24942303 0.10000000)
		(2.26256983 0.24999864 0.10000000)
		(2.27932961 0.24930583 0.10000000)
		(2.29608939 0.24734812 0.10000000)
		(2.31284916 0.24413543 0.10000000)
		(2.32960894 0.23968407 0.10000000)
		(2.34636872 0.23401662 0.10000000)
		(2.36312849 0.22716184 0.10000000)
		(2.37988827 0.21915451 0.10000000)
		(2.39664804 0.21003525 0.10000000)
		(2.41340782 0.19985033 0.10000000)
		(2.43016760 0.18865143 0.10000000)
		(2.44692737 0.17649536 0.10000000)
		(2.46368715 0.16344381 0.10000000)
		(2.48044693 0.14956299 0.10000000)
		(2.49720670 0.13492334 0.10000000)
		(2.51396648 0.11959912 0.10000000)
		(2.53072626 0.10366809 0.10000000)
		(2.54748603 0.08721108 0.10000000)
		(2.56424581 0.07031158 0.10000000)
		(2.58100559 0.05305535 0.10000000)
		(2.59776536 0.03552992 0.10000000)
		(2.61452514 0.01782423 0.10000000)
		(2.63128492 0.00002810 0.10000000)
		(2.64804469 -0.01776817 0.10000000)
		(2.66480447 -0.03547428 0.10000000)
		(2.68156425 -0.05300042 0.10000000)
		(2.69832402 -0.07025764 0.10000000)
		(2.71508380 -0.08715840 0.10000000)
		(2.73184358 -0.10361694 0.10000000)
		(2.74860335 -0.11954976 0.10000000)
		(2.76536313 -0.13487601 0.10000000)
		(2.78212291 -0.14951795 0.10000000)
		(2.79888268 -0.16340127 0.10000000)
		(2.81564246 -0.17645555 0.10000000)
		(2.83240223 -0.18861454 0.10000000)
		(2.84916201 -0.19981655 0.10000000)
		(2.86592179 -0.21000476 0.10000000)
		(2.88268156 -0.21912745 0.10000000)
		(2.89944134 -0.22713836 0.10000000)
		(2.91620112 -0.23399684 0.10000000)
		(2.93296089 -0.23966808 0.10000000)
		(2.95166480 -0.24163085 0.10000000)
		(2.97036872 -0.24338702 0.10000000)
		(2.98907263 -0.24493657 0.10000000)
		(3.00777654 -0.24627952 0.10000000)
		(3.02648045 -0.24741586 0.10000000)
		(3.04518436 -0.24834559 0.10000000)
		(3.06388827 -0.24906872 0.10000000)
		(3.08259218 -0.24958524 0.10000000)
		(3.10129609 -0.24989515 0.10000000)
		(3.12000000 -0.24999845 0.10000000)
		(3.14000000 -0.24999845 0.10000000)
		(3.16000000 -0.24999845 0.10000000)
		(3.18000000 -0.24999845 0.10000000)
		(3.20000000 -0.24999845 0.10000000)
		(3.22000000 -0.24999845 0.10000000)
		(3.24000000 -0.24999845 0.10000000)
		(3.26000000 -0.24999845 0.10000000)
		(3.28000000 -0.24999845 0.10000000)
		(3.30000000 -0.24999845 0.10000000)
		(3.32000000 -0.24999845 0.10000000)
		(3.34000000 -0.24999845 0.10000000)
		(3.36000000 -0.24999845 0.10000000)
		(3.38000000 -0.24999845 0.10000000)
		(3.40000000 -0.24999845 0.10000000)
		(3.42000000 -0.24999845 0.10000000)
		(3.44000000 -0.24999845 0.10000000)
		(3.46000000 -0.24999845 0.10000000)
		(3.48000000 -0.24999845 0.10000000)
		(3.50000000 -0.24999845 0.10000000)
		(3.52000000 -0.24999845 0.10000000)
		(3.54000000 -0.24999845 0.10000000)
		(3.56000000 -0.24999845 0.10000000)
		(3.58000000 -0.24999845 0.10000000)
		(3.60000000 -0.24999845 0.10000000)
		(3.62000000 -0.24999845 0.10000000)
		(3.64000000 -0.24999845 0.10000000)
		(3.66000000 -0.24999845 0.10000000)
		(3.68000000 -0.24999845 0.10000000)
		(3.70000000 -0.24999845 0.10000000)
		(3.72000000 -0.24999845 0.10000000)
		(3.74000000 -0.24999845 0.10000000)
		(3.76000000 -0.24999845 0.10000000)
		(3.78000000 -0.24999845 0.10000000)
		(3.80000000 -0.24999845 0.10000000)
		(3.82000000 -0.24999845 0.10000000)
		(3.84000000 -0.24999845 0.10000000)
		(3.86000000 -0.24999845 0.10000000)
		(3.88000000 -0.24999845 0.10000000)
		(3.90000000 -0.24999845 0.10000000)
		(3.92000000 -0.24999845 0.10000000)
		(3.94000000 -0.24999845 0.10000000)
		(3.96000000 -0.24999845 0.10000000)
		(3.98000000 -0.24999845 0.10000000)
		(4.00000000 -0.24999845 0.10000000)
	)
	polyLine 3 2
	(
		(-1.00000000 0.25449946 0.00000000)
		(-0.98000000 0.25384861 0.00000000)
		(-0.96000000 0.25319777 0.00000000)
		(-0.94000000 0.25254692 0.00000000)
		(-0.92000000 0.25189608 0.00000000)
		(-0.90000000 0.25124523 0.00000000)
		(-0.88000000 0.25059439 0.00000000)
		(-0.86000000 0.24994354 0.00000000)
		(-0.84000000 0.24929270 0.00000000)
		(-0.82000000 0.24864185 0.00000000)
		(-0.80000000 0.24799101 0.00000000)
		(-0.78000000 0.24734016 0.00000000)
		(-0.76000000 0.24668931 0.00000000)
		(-0.74000000 0.24603847 0.00000000)
		(-0.72000000 0.24538762 0.00000000)
		(-0.70000000 0.24473678 0.00000000)
		(-0.68000000 0.24408593 0.00000000)
		(-0.66000000 0.24343509 0.00000000)
		(-0.64000000 0.24278424 0.00000000)
		(-0.62000000 0.24213340 0.00000000)
		(-0.60000000 0.24148255 0.00000000)
		(-0.58000000 0.24083171 0.00000000)
		(-0.56000000 0.24018086 0.00000000)
		(-0.54000000 0.23953002 0.00000000)
		(-0.52000000 0.23887917 0.00000000)
		(-0.50000000 0.23822833 0.00000000)
		(-0.48000000 0.23757748 0.00000000)
		(-0.46000000 0.23692664 0.00000000)
		(-0.44000000 0.23627579 0.00000000)
		(-0.42000000 0.23562494 0.00000000)
		(-0.40000000 0.23497410 0.00000000)
		(-0.38000000 0.23432325 0.00000000)
		(-0.36000000 0.23367241 0.00000000)
		(-0.34000000 0.23302156 0.00000000)
		(-0.32000000 0.23237072 0.00000000)
		(-0.30000000 0.23171987 0.00000000)
		(-0.28000000 0.23106903 0.00000000)
		(-0.26000000 0.23041818 0.00000000)
		(-0.24000000 0.22976734 0.00000000)
		(-0.22000000 0.22911649 0.00000000)
		(-0.20000000 0.22846565 0.00000000)
		(-0.18000000 0.22781480 0.00000000)
		(-0.16000000 0.22716396 0.00000000)
		(-0.14000000 0.22651311 0.00000000)
		(-0.12000000 0.22586227 0.00000000)
		(-0.10000000 0.22521142 0.00000000)
		(-0.08162011 0.22476455 0.00000000)
		(-0.06324022 0.22433266 0.00000000)
		(-0.04486034 0.22391576 0.00000000)
		(-0.02648045 0.22351385 0.00000000)
		(-0.00810056 0.22312692 0.00000000)
		(0.01027933 0.22275499 0.00000000)
		(0.02865922 0.22239804 0.00000000)
		(0.04703911 0.22205608 0.00000000)
		(0.06541899 0.22172910 0.00000000)
		(0.08379888 0.22141712 0.00000000)
		(0.10055866 0.22545071 0.00000000)
		(0.11731844 0.23087729 0.00000000)
		(0.13407821 0.23766931 0.00000000)
		(0.15083799 0.24579233 0.00000000)
		(0.16759777 0.25520512 0.00000000)
		(0.18435754 0.26585993 0.00000000)
		(0.20111732 0.27770270 0.00000000)
		(0.21787709 0.29067334 0.00000000)
		(0.23463687 0.30470605 0.00000000)
		(0.25139665 0.31972961 0.00000000)
		(0.26815642 0.33566782 0.00000000)
		(0.28491620 0.35243981 0.00000000)
		(0.30167598 0.36996047 0.00000000)
		(0.31843575 0.38814091 0.00000000)
		(0.33519553 0.40688890 0.00000000)
		(0.35195531 0.42610930 0.00000000)
		(0.36871508 0.44570460 0.00000000)
		(0.38547486 0.46557538 0.00000000)
		(0.40223464 0.48562083 0.00000000)
		(0.41899441 0.50573923 0.00000000)
		(0.43575419 0.52582850 0.00000000)
		(0.45251397 0.54578674 0.00000000)
		(0.46927374 0.56551266 0.00000000)
		(0.48603352 0.58490619 0.00000000)
		(0.50279330 0.60386894 0.00000000)
		(0.51955307 0.62230468 0.00000000)
		(0.53631285 0.64011988 0.00000000)
		(0.55307263 0.65722416 0.00000000)
		(0.56983240 0.67353072 0.00000000)
		(0.58659218 0.68895684 0.00000000)
		(0.60335196 0.70342425 0.00000000)
		(0.62011173 0.71685955 0.00000000)
		(0.63687151 0.72919456 0.00000000)
		(0.65363128 0.74036670 0.00000000)
		(0.67039106 0.75031929 0.00000000)
		(0.68715084 0.75900184 0.00000000)
		(0.70391061 0.76637028 0.00000000)
		(0.72067039 0.77238724 0.00000000)
		(0.73743017 0.77702218 0.00000000)
		(0.75418994 0.78025160 0.00000000)
		(0.77094972 0.78205910 0.00000000)
		(0.78770950 0.78243551 0.00000000)
		(0.80446927 0.78137893 0.00000000)
		(0.82122905 0.77889471 0.00000000)
		(0.83798883 0.77499546 0.00000000)
		(0.85474860 0.76970096 0.00000000)
		(0.87150838 0.76303808 0.00000000)
		(0.88826816 0.75504062 0.00000000)
		(0.90502793 0.74574916 0.00000000)
		(0.92178771 0.73521084 0.00000000)
		(0.93854749 0.72347912 0.00000000)
		(0.95530726 0.71061354 0.00000000)
		(0.97206704 0.69667937 0.00000000)
		(0.98882682 0.68174730 0.00000000)
		(1.00558659 0.66589309 0.00000000)
		(1.02234637 0.64919720 0.00000000)
		(1.03910615 0.63174432 0.00000000)
		(1.05586592 0.61362301 0.00000000)
		(1.07262570 0.59492521 0.00000000)
		(1.08938547 0.57574578 0.00000000)
		(1.10614525 0.55618204 0.00000000)
		(1.12290503 0.53633326 0.00000000)
		(1.13966480 0.51630012 0.00000000)
		(1.15642458 0.49618429 0.00000000)
		(1.17318436 0.47608781 0.00000000)
		(1.18994413 0.45611266 0.00000000)
		(1.20670391 0.43636018 0.00000000)
		(1.22346369 0.41693059 0.00000000)
		(1.24022346 0.39792247 0.00000000)
		(1.25698324 0.37943226 0.00000000)
		(1.27374302 0.36155378 0.00000000)
		(1.29050279 0.34437773 0.00000000)
		(1.30726257 0.32799127 0.00000000)
		(1.32402235 0.31247753 0.00000000)
		(1.34078212 0.29791522 0.00000000)
		(1.35754190 0.28437824 0.00000000)
		(1.37430168 0.27193525 0.00000000)
		(1.39106145 0.26064940 0.00000000)
		(1.40782123 0.25057795 0.00000000)
		(1.42458101 0.24177199 0.00000000)
		(1.44134078 0.23427620 0.00000000)
		(1.45810056 0.22812862 0.00000000)
		(1.47486034 0.22336044 0.00000000)
		(1.49162011 0.21999585 0.00000000)
		(1.50837989 0.21805191 0.00000000)
		(1.52513966 0.21753850 0.00000000)
		(1.54189944 0.21845822 0.00000000)
		(1.55865922 0.22080640 0.00000000)
		(1.57541899 0.22457112 0.00000000)
		(1.59217877 0.22973330 0.00000000)
		(1.60893855 0.23626672 0.00000000)
		(1.62569832 0.24413826 0.00000000)
		(1.64245810 0.25330796 0.00000000)
		(1.65921788 0.26372931 0.00000000)
		(1.67597765 0.27534942 0.00000000)
		(1.69273743 0.28810935 0.00000000)
		(1.70949721 0.30194435 0.00000000)
		(1.72625698 0.31678422 0.00000000)
		(1.74301676 0.33255368 0.00000000)
		(1.75977654 0.34917272 0.00000000)
		(1.77653631 0.36655700 0.00000000)
		(1.79329609 0.38461834 0.00000000)
		(1.81005587 0.40326510 0.00000000)
		(1.82681564 0.42240265 0.00000000)
		(1.84357542 0.44193392 0.00000000)
		(1.86033520 0.46175979 0.00000000)
		(1.87709497 0.48177968 0.00000000)
		(1.89385475 0.50189202 0.00000000)
		(1.91061453 0.52199476 0.00000000)
		(1.92737430 0.54198591 0.00000000)
		(1.94413408 0.56176402 0.00000000)
		(1.96089385 0.58122877 0.00000000)
		(1.97765363 0.60028139 0.00000000)
		(1.99441341 0.61882520 0.00000000)
		(2.01117318 0.63676614 0.00000000)
		(2.02793296 0.65401316 0.00000000)
		(2.04469274 0.67047876 0.00000000)
		(2.06145251 0.68607940 0.00000000)
		(2.07821229 0.70073593 0.00000000)
		(2.09497207 0.71437398 0.00000000)
		(2.11173184 0.72692436 0.00000000)
		(2.12849162 0.73832340 0.00000000)
		(2.14525140 0.74851325 0.00000000)
		(2.16201117 0.75744221 0.00000000)
		(2.17877095 0.76506499 0.00000000)
		(2.19553073 0.77134290 0.00000000)
		(2.21229050 0.77624410 0.00000000)
		(2.22905028 0.77974372 0.00000000)
		(2.24581006 0.78182400 0.00000000)
		(2.26256983 0.78247438 0.00000000)
		(2.27932961 0.78169158 0.00000000)
		(2.29608939 0.77947955 0.00000000)
		(2.31284916 0.77584952 0.00000000)
		(2.32960894 0.77081991 0.00000000)
		(2.34636872 0.76441624 0.00000000)
		(2.36312849 0.75667100 0.00000000)
		(2.37988827 0.74762348 0.00000000)
		(2.39664804 0.73731959 0.00000000)
		(2.41340782 0.72581162 0.00000000)
		(2.43016760 0.71315794 0.00000000)
		(2.44692737 0.69942276 0.00000000)
		(2.46368715 0.68467576 0.00000000)