/*--------------------------------*- C++ -*----------------------------------*\\
/*--------------------------------*- C++ -*----------------------------------*\\
| =========                 |                                                 |
| \\\\      /  F ield         | OpenFOAM: The Open Source CFD Toolbox           |
|  \\\\    /   O peration     | Version:  v2012                                 |
|   \\\\  /    A nd           | Website:  www.openfoam.com                      |
|    \\\\/     M anipulation  |                                                 |
\\*---------------------------------------------------------------------------*/
FoamFile
{
    version     2.0;
    format      ascii;
    class       dictionary;
    object      blockMeshDict;
}
// * * * * * * * * * * * * * * * * * * * * * * * * * * * * * * * * * * * * * //

scale   0.01;

xmin -1;
xmax 5;
ymin 0;
ymax 0.5;
zmin 0;
zmax 0.1;

vertices
(
    (-1.00000000 0.20097521 0.00000000)
    (4.00000000 0.15069345 0.00000000)
    (4.00000000 0.65069345 0.00000000)
    (-1.00000000 0.70097521 0.00000000)
    (-1.00000000 0.20097521 0.10000000)
    (4.00000000 0.15069345 0.10000000)
    (4.00000000 0.65069345 0.10000000)
    (-1.00000000 0.70097521 0.10000000)
);

blocks
(
    hex (0 1 2 3 4 5 6 7) (200 20 1) simpleGrading (1 1 1)
);

edges
(
	polyLine 0 1
	(
		(-1.00000000 0.20097521 0.00000000)
		(-0.98000000 0.20097521 0.00000000)
		(-0.96000000 0.20097521 0.00000000)
		(-0.94000000 0.20097521 0.00000000)
		(-0.92000000 0.20097521 0.00000000)
		(-0.90000000 0.20097521 0.00000000)
		(-0.88000000 0.20097521 0.00000000)
		(-0.86000000 0.20097521 0.00000000)
		(-0.84000000 0.20097521 0.00000000)
		(-0.82000000 0.20097521 0.00000000)
		(-0.80000000 0.20097521 0.00000000)
		(-0.78000000 0.20097521 0.00000000)
		(-0.76000000 0.20097521 0.00000000)
		(-0.74000000 0.20097521 0.00000000)
		(-0.72000000 0.20097521 0.00000000)
		(-0.70000000 0.20097521 0.00000000)
		(-0.68000000 0.20097521 0.00000000)
		(-0.66000000 0.20097521 0.00000000)
		(-0.64000000 0.20097521 0.00000000)
		(-0.62000000 0.20097521 0.00000000)
		(-0.60000000 0.20097521 0.00000000)
		(-0.58000000 0.20097521 0.00000000)
		(-0.56000000 0.20097521 0.00000000)
		(-0.54000000 0.20097521 0.00000000)
		(-0.52000000 0.20097521 0.00000000)
		(-0.50000000 0.20097521 0.00000000)
		(-0.48000000 0.20097521 0.00000000)
		(-0.46000000 0.20097521 0.00000000)
		(-0.44000000 0.20097521 0.00000000)
		(-0.42000000 0.20097521 0.00000000)
		(-0.40000000 0.20097521 0.00000000)
		(-0.38000000 0.20097521 0.00000000)
		(-0.36000000 0.20097521 0.00000000)
		(-0.34000000 0.20097521 0.00000000)
		(-0.32000000 0.20097521 0.00000000)
		(-0.30000000 0.20097521 0.00000000)
		(-0.28000000 0.20097521 0.00000000)
		(-0.26000000 0.20097521 0.00000000)
		(-0.24000000 0.20097521 0.00000000)
		(-0.22000000 0.20097521 0.00000000)
		(-0.20000000 0.20097521 0.00000000)
		(-0.18000000 0.20097521 0.00000000)
		(-0.16000000 0.20097521 0.00000000)
		(-0.14000000 0.20097521 0.00000000)
		(-0.12000000 0.20097521 0.00000000)
		(-0.10000000 0.20097521 0.00000000)
		(-0.08162011 0.20005489 0.00000000)
		(-0.06324022 0.19729395 0.00000000)
		(-0.04486034 0.19269237 0.00000000)
		(-0.02648045 0.18625016 0.00000000)
		(-0.00810056 0.17796732 0.00000000)
		(0.01027933 0.16784385 0.00000000)
		(0.02865922 0.15587975 0.00000000)
		(0.04703911 0.14207502 0.00000000)
		(0.06541899 0.12642966 0.00000000)
		(0.08379888 0.10894367 0.00000000)
		(0.10055866 0.08673665 0.00000000)
		(0.11731844 0.06372113 0.00000000)
		(0.13407821 0.04011163 0.00000000)
		(0.15083799 0.01612823 0.00000000)
		(0.16759777 -0.00800551 0.00000000)
		(0.18435754 -0.03206462 0.00000000)
		(0.20111732 -0.05582485 0.00000000)
		(0.21787709 -0.07906470 0.00000000)
		(0.23463687 -0.10156756 0.00000000)
		(0.25139665 -0.12312366 0.00000000)
		(0.26815642 -0.14353207 0.00000000)
		(0.28491620 -0.16260254 0.00000000)
		(0.30167598 -0.18015733 0.00000000)
		(0.31843575 -0.19603278 0.00000000)
		(0.33519553 -0.21008093 0.00000000)
		(0.35195531 -0.22217081 0.00000000)
		(0.36871508 -0.23218973 0.00000000)
		(0.38547486 -0.24004431 0.00000000)
		(0.40223464 -0.24566132 0.00000000)
		(0.41899441 -0.24898841 0.00000000)
		(0.43575419 -0.24999456 0.00000000)
		(0.45251397 -0.24867040 0.00000000)
		(0.46927374 -0.24502827 0.00000000)
		(0.48603352 -0.23910211 0.00000000)
		(0.50279330 -0.23094718 0.00000000)
		(0.51955307 -0.22063948 0.00000000)
		(0.53631285 -0.20827509 0.00000000)
		(0.55307263 -0.19396928 0.00000000)
		(0.56983240 -0.17785539 0.00000000)
		(0.58659218 -0.16008363 0.00000000)
		(0.60335196 -0.14081965 0.00000000)
		(0.62011173 -0.12024303 0.00000000)
		(0.63687151 -0.09854557 0.00000000)
		(0.65363128 -0.07592952 0.00000000)
		(0.67039106 -0.05260570 0.00000000)
		(0.68715084 -0.02879151 0.00000000)
		(0.70391061 -0.00470894 0.00000000)
		(0.72067039 0.01941752 0.00000000)
		(0.73743017 0.04336298 0.00000000)
		(0.75418994 0.06690423 0.00000000)
		(0.77094972 0.08982184 0.00000000)
		(0.78770950 0.11190218 0.00000000)
		(0.80446927 0.13293942 0.00000000)
		(0.82122905 0.15273748 0.00000000)
		(0.83798883 0.17111180 0.00000000)
		(0.85474860 0.18789110 0.00000000)
		(0.87150838 0.20291899 0.00000000)
		(0.88826816 0.21605538 0.00000000)
		(0.90502793 0.22717781 0.00000000)
		(0.92178771 0.23618261 0.00000000)
		(0.93854749 0.24298585 0.00000000)
		(0.95530726 0.24752410 0.00000000)
		(0.97206704 0.24975507 0.00000000)
		(0.98882682 0.24965796 0.00000000)
		(1.00558659 0.24723366 0.00000000)
		(1.02234637 0.24250479 0.00000000)
		(1.03910615 0.23551542 0.00000000)
		(1.05586592 0.22633070 0.00000000)
		(1.07262570 0.21503625 0.00000000)
		(1.08938547 0.20173734 0.00000000)
		(1.10614525 0.18655795 0.00000000)
		(1.12290503 0.16963956 0.00000000)
		(1.13966480 0.15113989 0.00000000)
		(1.15642458 0.13123137 0.00000000)
		(1.17318436 0.11009959 0.00000000)
		(1.18994413 0.08794151 0.00000000)
		(1.20670391 0.06496369 0.00000000)
		(1.22346369 0.04138031 0.00000000)
		(1.24022346 0.01741121 0.00000000)
		(1.25698324 -0.00672019 0.00000000)
		(1.27374302 -0.03078894 0.00000000)
		(1.29050279 -0.05457070 0.00000000)
		(1.30726257 -0.07784378 0.00000000)
		(1.32402235 -0.10039124 0.00000000)
		(1.34078212 -0.12200291 0.00000000)
		(1.35754190 -0.14247734 0.00000000)
		(1.37430168 -0.16162366 0.00000000)
		(1.39106145 -0.17926342 0.00000000)
		(1.40782123 -0.19523218 0.00000000)
		(1.42458101 -0.20938109 0.00000000)
		(1.44134078 -0.22157827 0.00000000)
		(1.45810056 -0.23171001 0.00000000)
		(1.47486034 -0.23968187 0.00000000)
		(1.49162011 -0.24541955 0.00000000)
		(1.50837989 -0.24886956 0.00000000)
		(1.52513966 -0.24999974 0.00000000)
		(1.54189944 -0.24879955 0.00000000)
		(1.55865922 -0.24528020 0.00000000)
		(1.57541899 -0.23947447 0.00000000)
		(1.59217877 -0.23143649 0.00000000)
		(1.60893855 -0.22124118 0.00000000)
		(1.62569832 -0.20898358 0.00000000)
		(1.64245810 -0.19477795 0.00000000)
		(1.65921788 -0.17875671 0.00000000)
		(1.67597765 -0.16106919 0.00000000)
		(1.69273743 -0.14188027 0.00000000)
		(1.70949721 -0.12136881 0.00000000)
		(1.72625698 -0.09972603 0.00000000)
		(1.74301676 -0.07715365 0.00000000)
		(1.75977654 -0.05386208 0.00000000)
		(1.77653631 -0.03006845 0.00000000)
		(1.79329609 -0.00599453 0.00000000)
		(1.81005587 0.01813527 0.00000000)
		(1.82681564 0.04209602 0.00000000)
		(1.84357542 0.06566437 0.00000000)
		(1.86033520 0.08862064 0.00000000)
		(1.87709497 0.11075083 0.00000000)
		(1.89385475 0.13184866 0.00000000)
		(1.91061453 0.15171747 0.00000000)
		(1.92737430 0.17017205 0.00000000)
		(1.94413408 0.18704038 0.00000000)
		(1.96089385 0.20216522 0.00000000)
		(1.97765363 0.21540558 0.00000000)
		(1.99441341 0.22663805 0.00000000)
		(2.01117318 0.23575792 0.00000000)
		(2.02793296 0.24268018 0.00000000)
		(2.04469274 0.24734031 0.00000000)
		(2.06145251 0.24969486 0.00000000)
		(2.07821229 0.24972189 0.00000000)
		(2.09497207 0.24742115 0.00000000)
		(2.11173184 0.24281409 0.00000000)
		(2.12849162 0.23594364 0.00000000)
		(2.14525140 0.22687385 0.00000000)
		(2.16201117 0.21568926 0.00000000)
		(2.17877095 0.20249414 0.00000000)
		(2.19553073 0.18741147 0.00000000)
		(2.21229050 0.17058186 0.00000000)
		(2.22905028 0.15216217 0.00000000)
		(2.24581006 0.13232411 0.00000000)
		(2.26256983 0.11125259 0.00000000)
		(2.27932961 0.08914404 0.00000000)
		(2.29608939 0.06620453 0.00000000)
		(2.31284916 0.04264791 0.00000000)
		(2.32960894 0.01869374 0.00000000)
		(2.34636872 -0.00543469 0.00000000)
		(2.36312849 -0.02951245 0.00000000)
		(2.37988827 -0.05331511 0.00000000)
		(2.39664804 -0.07662080 0.00000000)
		(2.41340782 -0.09921227 0.00000000)
		(2.43016760 -0.12087894 0.00000000)
		(2.44692737 -0.14141884 0.00000000)
		(2.46368715 -0.16064051 0.00000000)
		(2.48044693 -0.17836477 0.00000000)
		(2.49720670 -0.19442642 0.00000000)
		(2.51396648 -0.20867572 0.00000000)
		(2.53072626 -0.22097986 0.00000000)
		(2.54748603 -0.23122415 0.00000000)
		(2.56424581 -0.23931309 0.00000000)
		(2.58100559 -0.24517128 0.00000000)
		(2.59776536 -0.24874412 0.00000000)
		(2.61452514 -0.24999830 0.00000000)
		(2.63128492 -0.24892212 0.00000000)
		(2.64804469 -0.24552563 0.00000000)
		(2.66480447 -0.23984049 0.00000000)
		(2.68156425 -0.23191968 0.00000000)
		(2.69832402 -0.22183703 0.00000000)
		(2.71508380 -0.20968654 0.00000000)
		(2.73184358 -0.19558147 0.00000000)
		(2.74860335 -0.17965329 0.00000000)
		(2.76536313 -0.16205048 0.00000000)
		(2.78212291 -0.14293713 0.00000000)
		(2.79888268 -0.12249139 0.00000000)
		(2.81564246 -0.10090385 0.00000000)
		(2.83240223 -0.07837574 0.00000000)
		(2.84916201 -0.05511705 0.00000000)
		(2.86592179 -0.03134459 0.00000000)
		(2.88268156 -0.00727995 0.00000000)
		(2.89944134 0.01685254 0.00000000)
		(2.91620112 0.04082795 0.00000000)
		(2.93296089 0.06442278 0.00000000)
		(2.95166480 0.08081420 0.00000000)
		(2.97036872 0.09548022 0.00000000)
		(2.98907263 0.10842082 0.00000000)
		(3.00777654 0.11963601 0.00000000)
		(3.02648045 0.12912578 0.00000000)
		(3.04518436 0.13689014 0.00000000)
		(3.06388827 0.14292909 0.00000000)
		(3.08259218 0.14724262 0.00000000)
		(3.10129609 0.14983074 0.00000000)
		(3.12000000 0.15069345 0.00000000)
		(3.14000000 0.15069345 0.00000000)
		(3.16000000 0.15069345 0.00000000)
		(3.18000000 0.15069345 0.00000000)
		(3.20000000 0.15069345 0.00000000)
		(3.22000000 0.15069345 0.00000000)
		(3.24000000 0.15069345 0.00000000)
		(3.26000000 0.15069345 0.00000000)
		(3.28000000 0.15069345 0.00000000)
		(3.30000000 0.15069345 0.00000000)
		(3.32000000 0.15069345 0.00000000)
		(3.34000000 0.15069345 0.00000000)
		(3.36000000 0.15069345 0.00000000)
		(3.38000000 0.15069345 0.00000000)
		(3.40000000 0.15069345 0.00000000)
		(3.42000000 0.15069345 0.00000000)
		(3.44000000 0.15069345 0.00000000)
		(3.46000000 0.15069345 0.00000000)
		(3.48000000 0.15069345 0.00000000)
		(3.50000000 0.15069345 0.00000000)
		(3.52000000 0.15069345 0.00000000)
		(3.54000000 0.15069345 0.00000000)
		(3.56000000 0.15069345 0.00000000)
		(3.58000000 0.15069345 0.00000000)
		(3.60000000 0.15069345 0.00000000)
		(3.62000000 0.15069345 0.00000000)
		(3.64000000 0.15069345 0.00000000)
		(3.66000000 0.15069345 0.00000000)
		(3.68000000 0.15069345 0.00000000)
		(3.70000000 0.15069345 0.00000000)
		(3.72000000 0.15069345 0.00000000)
		(3.74000000 0.15069345 0.00000000)
		(3.76000000 0.15069345 0.00000000)
		(3.78000000 0.15069345 0.00000000)
		(3.80000000 0.15069345 0.00000000)
		(3.82000000 0.15069345 0.00000000)
		(3.84000000 0.15069345 0.00000000)
		(3.86000000 0.15069345 0.00000000)
		(3.88000000 0.15069345 0.00000000)
		(3.90000000 0.15069345 0.00000000)
		(3.92000000 0.15069345 0.00000000)
		(3.94000000 0.15069345 0.00000000)
		(3.96000000 0.15069345 0.00000000)
		(3.98000000 0.15069345 0.00000000)
		(4.00000000 0.15069345 0.00000000)
	)
	polyLine 4 5
	(
		(-1.00000000 0.20097521 0.10000000)
		(-0.98000000 0.20097521 0.10000000)
		(-0.96000000 0.20097521 0.10000000)
		(-0.94000000 0.20097521 0.10000000)
		(-0.92000000 0.20097521 0.10000000)
		(-0.90000000 0.20097521 0.10000000)
		(-0.88000000 0.20097521 0.10000000)
		(-0.86000000 0.20097521 0.10000000)
		(-0.84000000 0.20097521 0.10000000)
		(-0.82000000 0.20097521 0.10000000)
		(-0.80000000 0.20097521 0.10000000)
		(-0.78000000 0.20097521 0.10000000)
		(-0.76000000 0.20097521 0.10000000)
		(-0.74000000 0.20097521 0.10000000)
		(-0.72000000 0.20097521 0.10000000)
		(-0.70000000 0.20097521 0.10000000)
		(-0.68000000 0.20097521 0.10000000)
		(-0.66000000 0.20097521 0.10000000)
		(-0.64000000 0.20097521 0.10000000)
		(-0.62000000 0.20097521 0.10000000)
		(-0.60000000 0.20097521 0.10000000)
		(-0.58000000 0.20097521 0.10000000)
		(-0.56000000 0.20097521 0.10000000)
		(-0.54000000 0.20097521 0.10000000)
		(-0.52000000 0.20097521 0.10000000)
		(-0.50000000 0.20097521 0.10000000)
		(-0.48000000 0.20097521 0.10000000)
		(-0.46000000 0.20097521 0.10000000)
		(-0.44000000 0.20097521 0.10000000)
		(-0.42000000 0.20097521 0.10000000)
		(-0.40000000 0.20097521 0.10000000)
		(-0.38000000 0.20097521 0.10000000)
		(-0.36000000 0.20097521 0.10000000)
		(-0.34000000 0.20097521 0.10000000)
		(-0.32000000 0.20097521 0.10000000)
		(-0.30000000 0.20097521 0.10000000)
		(-0.28000000 0.20097521 0.10000000)
		(-0.26000000 0.20097521 0.10000000)
		(-0.24000000 0.20097521 0.10000000)
		(-0.22000000 0.20097521 0.10000000)
		(-0.20000000 0.20097521 0.10000000)
		(-0.18000000 0.20097521 0.10000000)
		(-0.16000000 0.20097521 0.10000000)
		(-0.14000000 0.20097521 0.10000000)
		(-0.12000000 0.20097521 0.10000000)
		(-0.10000000 0.20097521 0.10000000)
		(-0.08162011 0.20005489 0.10000000)
		(-0.06324022 0.19729395 0.10000000)
		(-0.04486034 0.19269237 0.10000000)
		(-0.02648045 0.18625016 0.10000000)
		(-0.00810056 0.17796732 0.10000000)
		(0.01027933 0.16784385 0.10000000)
		(0.02865922 0.15587975 0.10000000)
		(0.04703911 0.14207502 0.10000000)
		(0.06541899 0.12642966 0.10000000)
		(0.08379888 0.10894367 0.10000000)
		(0.10055866 0.08673665 0.10000000)
		(0.11731844 0.06372113 0.10000000)
		(0.13407821 0.04011163 0.10000000)
		(0.15083799 0.01612823 0.10000000)
		(0.16759777 -0.00800551 0.10000000)
		(0.18435754 -0.03206462 0.10000000)
		(0.20111732 -0.05582485 0.10000000)
		(0.21787709 -0.07906470 0.10000000)
		(0.23463687 -0.10156756 0.10000000)
		(0.25139665 -0.12312366 0.10000000)
		(0.26815642 -0.14353207 0.10000000)
		(0.28491620 -0.16260254 0.10000000)
		(0.30167598 -0.18015733 0.10000000)
		(0.31843575 -0.19603278 0.10000000)
		(0.33519553 -0.21008093 0.10000000)
		(0.35195531 -0.22217081 0.10000000)
		(0.36871508 -0.23218973 0.10000000)
		(0.38547486 -0.24004431 0.10000000)
		(0.40223464 -0.24566132 0.10000000)
		(0.41899441 -0.24898841 0.10000000)
		(0.43575419 -0.24999456 0.10000000)
		(0.45251397 -0.24867040 0.10000000)
		(0.46927374 -0.24502827 0.10000000)
		(0.48603352 -0.23910211 0.10000000)
		(0.50279330 -0.23094718 0.10000000)
		(0.51955307 -0.22063948 0.10000000)
		(0.53631285 -0.20827509 0.10000000)
		(0.55307263 -0.19396928 0.10000000)
		(0.56983240 -0.17785539 0.10000000)
		(0.58659218 -0.16008363 0.10000000)
		(0.60335196 -0.14081965 0.10000000)
		(0.62011173 -0.12024303 0.10000000)
		(0.63687151 -0.09854557 0.10000000)
		(0.65363128 -0.07592952 0.10000000)
		(0.67039106 -0.05260570 0.10000000)
		(0.68715084 -0.02879151 0.10000000)
		(0.70391061 -0.00470894 0.10000000)
		(0.72067039 0.01941752 0.10000000)
		(0.73743017 0.04336298 0.10000000)
		(0.75418994 0.06690423 0.10000000)
		(0.77094972 0.08982184 0.10000000)
		(0.78770950 0.11190218 0.10000000)
		(0.80446927 0.13293942 0.10000000)
		(0.82122905 0.15273748 0.10000000)
		(0.83798883 0.17111180 0.10000000)
		(0.85474860 0.18789110 0.10000000)
		(0.87150838 0.20291899 0.10000000)
		(0.88826816 0.21605538 0.10000000)
		(0.90502793 0.22717781 0.10000000)
		(0.92178771 0.23618261 0.10000000)
		(0.93854749 0.24298585 0.10000000)
		(0.95530726 0.24752410 0.10000000)
		(0.97206704 0.24975507 0.10000000)
		(0.98882682 0.24965796 0.10000000)
		(1.00558659 0.24723366 0.10000000)
		(1.02234637 0.24250479 0.10000000)
		(1.03910615 0.23551542 0.10000000)
		(1.05586592 0.22633070 0.10000000)
		(1.07262570 0.21503625 0.10000000)
		(1.08938547 0.20173734 0.10000000)
		(1.10614525 0.18655795 0.10000000)
		(1.12290503 0.16963956 0.10000000)
		(1.13966480 0.15113989 0.10000000)
		(1.15642458 0.13123137 0.10000000)
		(1.17318436 0.11009959 0.10000000)
		(1.18994413 0.08794151 0.10000000)
		(1.20670391 0.06496369 0.10000000)
		(1.22346369 0.04138031 0.10000000)
		(1.24022346 0.01741121 0.10000000)
		(1.25698324 -0.00672019 0.10000000)
		(1.27374302 -0.03078894 0.10000000)
		(1.29050279 -0.05457070 0.10000000)
		(1.30726257 -0.07784378 0.10000000)
		(1.32402235 -0.10039124 0.10000000)
		(1.34078212 -0.12200291 0.10000000)
		(1.35754190 -0.14247734 0.10000000)
		(1.37430168 -0.16162366 0.10000000)
		(1.39106145 -0.17926342 0.10000000)
		(1.40782123 -0.19523218 0.10000000)
		(1.42458101 -0.20938109 0.10000000)
		(1.44134078 -0.22157827 0.10000000)
		(1.45810056 -0.23171001 0.10000000)
		(1.47486034 -0.23968187 0.10000000)
		(1.49162011 -0.24541955 0.10000000)
		(1.50837989 -0.24886956 0.10000000)
		(1.52513966 -0.24999974 0.10000000)
		(1.54189944 -0.24879955 0.10000000)
		(1.55865922 -0.24528020 0.10000000)
		(1.57541899 -0.23947447 0.10000000)
		(1.59217877 -0.23143649 0.10000000)
		(1.60893855 -0.22124118 0.10000000)
		(1.62569832 -0.20898358 0.10000000)
		(1.64245810 -0.19477795 0.10000000)
		(1.65921788 -0.17875671 0.10000000)
		(1.67597765 -0.16106919 0.10000000)
		(1.69273743 -0.14188027 0.10000000)
		(1.70949721 -0.12136881 0.10000000)
		(1.72625698 -0.09972603 0.10000000)
		(1.74301676 -0.07715365 0.10000000)
		(1.75977654 -0.05386208 0.10000000)
		(1.77653631 -0.03006845 0.10000000)
		(1.79329609 -0.00599453 0.10000000)
		(1.81005587 0.01813527 0.10000000)
		(1.82681564 0.04209602 0.10000000)
		(1.84357542 0.06566437 0.10000000)
		(1.86033520 0.08862064 0.10000000)
		(1.87709497 0.11075083 0.10000000)
		(1.89385475 0.13184866 0.10000000)
		(1.91061453 0.15171747 0.10000000)
		(1.92737430 0.17017205 0.10000000)
		(1.94413408 0.18704038 0.10000000)
		(1.96089385 0.20216522 0.10000000)
		(1.97765363 0.21540558 0.10000000)
		(1.99441341 0.22663805 0.10000000)
		(2.01117318 0.23575792 0.10000000)
		(2.02793296 0.24268018 0.10000000)
		(2.04469274 0.24734031 0.10000000)
		(2.06145251 0.24969486 0.10000000)
		(2.07821229 0.24972189 0.10000000)
		(2.09497207 0.24742115 0.10000000)
		(2.11173184 0.24281409 0.10000000)
		(2.12849162 0.23594364 0.10000000)
		(2.14525140 0.22687385 0.10000000)
		(2.16201117 0.21568926 0.10000000)
		(2.17877095 0.20249414 0.10000000)
		(2.19553073 0.18741147 0.10000000)
		(2.21229050 0.17058186 0.10000000)
		(2.22905028 0.15216217 0.10000000)
		(2.24581006 0.13232411 0.10000000)
		(2.26256983 0.11125259 0.10000000)
		(2.27932961 0.08914404 0.10000000)
		(2.29608939 0.06620453 0.10000000)
		(2.31284916 0.04264791 0.10000000)
		(2.32960894 0.01869374 0.10000000)
		(2.34636872 -0.00543469 0.10000000)
		(2.36312849 -0.02951245 0.10000000)
		(2.37988827 -0.05331511 0.10000000)
		(2.39664804 -0.07662080 0.10000000)
		(2.41340782 -0.09921227 0.10000000)
		(2.43016760 -0.12087894 0.10000000)
		(2.44692737 -0.14141884 0.10000000)
		(2.46368715 -0.16064051 0.10000000)
		(2.48044693 -0.17836477 0.10000000)
		(2.49720670 -0.19442642 0.10000000)
		(2.51396648 -0.20867572 0.10000000)
		(2.53072626 -0.22097986 0.10000000)
		(2.54748603 -0.23122415 0.10000000)
		(2.56424581 -0.23931309 0.10000000)
		(2.58100559 -0.24517128 0.10000000)
		(2.59776536 -0.24874412 0.10000000)
		(2.61452514 -0.24999830 0.10000000)
		(2.63128492 -0.24892212 0.10000000)
		(2.64804469 -0.24552563 0.10000000)
		(2.66480447 -0.23984049 0.10000000)
		(2.68156425 -0.23191968 0.10000000)
		(2.69832402 -0.22183703 0.10000000)
		(2.71508380 -0.20968654 0.10000000)
		(2.73184358 -0.19558147 0.10000000)
		(2.74860335 -0.17965329 0.10000000)
		(2.76536313 -0.16205048 0.10000000)
		(2.78212291 -0.14293713 0.10000000)
		(2.79888268 -0.12249139 0.10000000)
		(2.81564246 -0.10090385 0.10000000)
		(2.83240223 -0.07837574 0.10000000)
		(2.84916201 -0.05511705 0.10000000)
		(2.86592179 -0.03134459 0.10000000)
		(2.88268156 -0.00727995 0.10000000)
		(2.89944134 0.01685254 0.10000000)
		(2.91620112 0.04082795 0.10000000)
		(2.93296089 0.06442278 0.10000000)
		(2.95166480 0.08081420 0.10000000)
		(2.97036872 0.09548022 0.10000000)
		(2.98907263 0.10842082 0.10000000)
		(3.00777654 0.11963601 0.10000000)
		(3.02648045 0.12912578 0.10000000)
		(3.04518436 0.13689014 0.10000000)
		(3.06388827 0.14292909 0.10000000)
		(3.08259218 0.14724262 0.10000000)
		(3.10129609 0.14983074 0.10000000)
		(3.12000000 0.15069345 0.10000000)
		(3.14000000 0.15069345 0.10000000)
		(3.16000000 0.15069345 0.10000000)
		(3.18000000 0.15069345 0.10000000)
		(3.20000000 0.15069345 0.10000000)
		(3.22000000 0.15069345 0.10000000)
		(3.24000000 0.15069345 0.10000000)
		(3.26000000 0.15069345 0.10000000)
		(3.28000000 0.15069345 0.10000000)
		(3.30000000 0.15069345 0.10000000)
		(3.32000000 0.15069345 0.10000000)
		(3.34000000 0.15069345 0.10000000)
		(3.36000000 0.15069345 0.10000000)
		(3.38000000 0.15069345 0.10000000)
		(3.40000000 0.15069345 0.10000000)
		(3.42000000 0.15069345 0.10000000)
		(3.44000000 0.15069345 0.10000000)
		(3.46000000 0.15069345 0.10000000)
		(3.48000000 0.15069345 0.10000000)
		(3.50000000 0.15069345 0.10000000)
		(3.52000000 0.15069345 0.10000000)
		(3.54000000 0.15069345 0.10000000)
		(3.56000000 0.15069345 0.10000000)
		(3.58000000 0.15069345 0.10000000)
		(3.60000000 0.15069345 0.10000000)
		(3.62000000 0.15069345 0.10000000)
		(3.64000000 0.15069345 0.10000000)
		(3.66000000 0.15069345 0.10000000)
		(3.68000000 0.15069345 0.10000000)
		(3.70000000 0.15069345 0.10000000)
		(3.72000000 0.15069345 0.10000000)
		(3.74000000 0.15069345 0.10000000)
		(3.76000000 0.15069345 0.10000000)
		(3.78000000 0.15069345 0.10000000)
		(3.80000000 0.15069345 0.10000000)
		(3.82000000 0.15069345 0.10000000)
		(3.84000000 0.15069345 0.10000000)
		(3.86000000 0.15069345 0.10000000)
		(3.88000000 0.15069345 0.10000000)
		(3.90000000 0.15069345 0.10000000)
		(3.92000000 0.15069345 0.10000000)
		(3.94000000 0.15069345 0.10000000)
		(3.96000000 0.15069345 0.10000000)
		(3.98000000 0.15069345 0.10000000)
		(4.00000000 0.15069345 0.10000000)
	)
	polyLine 3 2
	(
		(-1.00000000 0.70097521 0.00000000)
		(-0.98000000 0.70023079 0.00000000)
		(-0.96000000 0.69948637 0.00000000)
		(-0.94000000 0.69874196 0.00000000)
		(-0.92000000 0.69799754 0.00000000)
		(-0.90000000 0.69725312 0.00000000)
		(-0.88000000 0.69650871 0.00000000)
		(-0.86000000 0.69576429 0.00000000)
		(-0.84000000 0.69501987 0.00000000)
		(-0.82000000 0.69427545 0.00000000)
		(-0.80000000 0.69353104 0.00000000)
		(-0.78000000 0.69278662 0.00000000)
		(-0.76000000 0.69204220 0.00000000)
		(-0.74000000 0.69129779 0.00000000)
		(-0.72000000 0.69055337 0.00000000)
		(-0.70000000 0.68980895 0.00000000)
		(-0.68000000 0.68906453 0.00000000)
		(-0.66000000 0.68832012 0.00000000)
		(-0.64000000 0.68757570 0.00000000)
		(-0.62000000 0.68683128 0.00000000)
		(-0.60000000 0.68608687 0.00000000)
		(-0.58000000 0.68534245 0.00000000)
		(-0.56000000 0.68459803 0.00000000)
		(-0.54000000 0.68385361 0.00000000)
		(-0.52000000 0.68310920 0.00000000)
		(-0.50000000 0.68236478 0.00000000)
		(-0.48000000 0.68162036 0.00000000)
		(-0.46000000 0.68087595 0.00000000)
		(-0.44000000 0.68013153 0.00000000)
		(-0.42000000 0.67938711 0.00000000)
		(-0.40000000 0.67864270 0.00000000)
		(-0.38000000 0.67789828 0.00000000)
		(-0.36000000 0.67715386 0.00000000)
		(-0.34000000 0.67640944 0.00000000)
		(-0.32000000 0.67566503 0.00000000)
		(-0.30000000 0.67492061 0.00000000)
		(-0.28000000 0.67417619 0.00000000)
		(-0.26000000 0.67343178 0.00000000)
		(-0.24000000 0.67268736 0.00000000)
		(-0.22000000 0.67194294 0.00000000)
		(-0.20000000 0.67119852 0.00000000)
		(-0.18000000 0.67045411 0.00000000)
		(-0.16000000 0.66970969 0.00000000)
		(-0.14000000 0.66896527 0.00000000)
		(-0.12000000 0.66822086 0.00000000)
		(-0.10000000 0.66747644 0.00000000)
		(-0.08162011 0.66746054 0.00000000)
		(-0.06324022 0.66570804 0.00000000)
		(-0.04486034 0.66221895 0.00000000)
		(-0.02648045 0.65699327 0.00000000)
		(-0.00810056 0.65003099 0.00000000)
		(0.01027933 0.64133212 0.00000000)
		(0.02865922 0.63089666 0.00000000)
		(0.04703911 0.61872460 0.00000000)
		(0.06541899 0.60481594 0.00000000)
		(0.08379888 0.58917070 0.00000000)
		(0.10055866 0.57099419 0.00000000)
		(0.11731844 0.55215592 0.00000000)
		(0.13407821 0.53283148 0.00000000)
		(0.15083799 0.51320100 0.00000000)
		(0.16759777 0.49344747 0.00000000)
		(0.18435754 0.47375502 0.00000000)
		(0.20111732 0.45430721 0.00000000)
		(0.21787709 0.43528532 0.00000000)
		(0.23463687 0.41686667 0.00000000)
		(0.25139665 0.39922294 0.00000000)
		(0.26815642 0.38251860 0.00000000)
		(0.28491620 0.36690936 0.00000000)
		(0.30167598 0.35254072 0.00000000)
		(0.31843575 0.33954662 0.00000000)
		(0.33519553 0.32804817 0.00000000)
		(0.35195531 0.31815257 0.00000000)
		(0.36871508 0.30995206 0.00000000)
		(0.38547486 0.30352306 0.00000000)
		(0.40223464 0.29892552 0.00000000)
		(0.41899441 0.29620229 0.00000000)
		(0.43575419 0.29537875 0.00000000)
		(0.45251397 0.29646258 0.00000000)
		(0.46927374 0.29944368 0.00000000)
		(0.48603352 0.30429425 0.00000000)
		(0.50279330 0.31096909 0.00000000)
		(0.51955307 0.31940597 0.00000000)
		(0.53631285 0.32952625 0.00000000)
		(0.55307263 0.34123560 0.00000000)
		(0.56983240 0.35442487 0.00000000)
		(0.58659218 0.36897110 0.00000000)
		(0.60335196 0.38473872 0.00000000)
		(0.62011173 0.40158074 0.00000000)
		(0.63687151 0.41934017 0.00000000)
		(0.65363128 0.43785148 0.00000000)
		(0.67039106 0.45694209 0.00000000)
		(0.68715084 0.47643407 0.00000000)
		(0.70391061 0.49614572 0.00000000)
		(0.72067039 0.51589329 0.00000000)
		(0.73743017 0.53549272 0.00000000)
		(0.75418994 0.55476130 0.00000000)
		(0.77094972 0.57351943 0.00000000)
		(0.78770950 0.59159224 0.00000000)
		(0.80446927 0.60881129 0.00000000)
		(0.82122905 0.62501605 0.00000000)
		(0.83798883 0.64005549 0.00000000)
		(0.85474860 0.65378940 0.00000000)
		(0.87150838 0.66608976 0.00000000)
		(0.88826816 0.67684193 0.00000000)
		(0.90502793 0.68594567 0.00000000)
		(0.92178771 0.69331613 0.00000000)
		(0.93854749 0.69888460 0.00000000)
		(0.95530726 0.70259917 0.00000000)
		(0.97206704 0.70442523 0.00000000)
		(0.98882682 0.70434574 0.00000000)
		(1.00558659 0.70236144 0.00000000)
		(1.02234637 0.69849085 0.00000000)
		(1.03910615 0.69277003 0.00000000)
		(1.05586592 0.68525231 0.00000000)
		(1.07262570 0.67600777 0.00000000)
		(1.08938547 0.66512258 0.00000000)
		(1.10614525 0.65269820 0.00000000)
		(1.12290503 0.63885046 0.00000000)
		(1.13966480 0.62370842 0.00000000)
		(1.15642458 0.60741325 0.00000000)
		(1.17318436 0.59011682 0.00000000)
		(1.18994413 0.57198037 0.00000000)
		(1.20670391 0.55317296 0.00000000)
		(1.22346369 0.53386990 0.00000000)
		(1.24022346 0.51425113 0.00000000)
		(1.25698324 0.49449951 0.00000000)
		(1.27374302 0.47479916 0.00000000)
		(1.29050279 0.45533373 0.00000000)
		(1.30726257 0.43628465 0.00000000)
		(1.32402235 0.41782949 0.00000000)
		(1.34078212 0.40014027 0.00000000)
		(1.35754190 0.38338190 0.00000000)
		(1.37430168 0.36771058 0.00000000)
		(1.39106145 0.35327239 0.00000000)
		(1.40782123 0.34020191 0.00000000)
		(1.42458101 0.32862099 0.00000000)
		(1.44134078 0.31863757 0.00000000)
		(1.45810056 0.31034471 0.00000000)
		(1.47486034 0.30381972 0.00000000)
		(1.49162011 0.29912341 0.00000000)
		(1.50837989 0.29629957 0.00000000)
		(1.52513966 0.29537452 0.00000000)
		(1.54189944 0.29635687 0.00000000)
		(1.55865922 0.29923747 0.00000000)
		(1.57541899 0.30398948 0.00000000)
		(1.59217877 0.31056859 0.00000000)
		(1.60893855 0.31891347 0.00000000)
		(1.62569832 0.32894635 0.00000000)
		(1.64245810 0.34057370 0.00000000)
		(1.65921788 0.35368714 0.00000000)
		(1.67597765 0.36816442 0.00000000)
		(1.69273743 0.38387060 0.00000000)
		(1.70949721 0.40065929 0.00000000)
		(1.72625698 0.41837397 0.00000000)
		(1.74301676 0.43684952 0.00000000)
		(1.75977654 0.45591373 0.00000000)
		(1.77653631 0.47538889 0.00000000)
		(1.79329609 0.49509346 0.00000000)
		(1.81005587 0.51484377 0.00000000)
		(1.82681564 0.53445571 0.00000000)
		(1.84357542 0.55374647 0.00000000)
		(1.86033520 0.57253624 0.00000000)
		(1.87709497 0.59064986 0.00000000)
		(1.89385475 0.60791850 0.00000000)
		(1.91061453 0.62418117 0.00000000)
		(1.92737430 0.63928630 0.00000000)
		(1.94413408 0.65309307 0.00000000)
		(1.96089385 0.66547280 0.00000000)
		(1.97765363 0.67631007 0.00000000)
		(1.99441341 0.68550388 0.00000000)
		(2.01117318 0.69296852 0.00000000)
		(2.02793296 0.69863441 0.00000000)
		(2.04469274 0.70244873 0.00000000)
		(2.06145251 0.70437594 0.00000000)
		(2.07821229 0.70439807 0.00000000)
		(2.09497207 0.70251491 0.00000000)
		(2.11173184 0.69874401 0.00000000)
		(2.12849162 0.69312053 0.00000000)
		(2.14525140 0.68569688 0.00000000)
		(2.16201117 0.67654226 0.00000000)
		(2.17877095 0.66574202 0.00000000)
		(2.19553073 0.65339681 0.00000000)
		(2.21229050 0.63962173 0.00000000)
		(2.22905028 0.62454516 0.00000000)
		(2.24581006 0.60830765 0.00000000)
		(2.26256983 0.59106056 0.00000000)
		(2.27932961 0.57296465 0.00000000)
		(2.29608939 0.55418860 0.00000000)
		(2.31284916 0.53490743 0.00000000)
		(2.32960894 0.51530088 0.00000000)
		(2.34636872 0.49555169 0.00000000)
		(2.36312849 0.47584398 0.00000000)
		(2.37988827 0.45636143 0.00000000)
		(2.39664804 0.43728566 0.00000000)
		(2.41340782 0.41879448 0.00000000)
		(2.43016760 0.40106025 0.00000000)
		(2.44692737 0.38424828 0.00000000)
		(2.46368715 0.36851529 0.00000000)
		(2.48044693 0.35400793 0.00000000)
		(2.49720670 0.34086143 0.00000000)
		(2.51396648 0.32919834 0.00000000)
		(2.53072626 0.31912736 0.00000000)
		(2.54748603 0.31074239 0.00000000)