/*--------------------------------*- C++ -*----------------------------------*\\
/*--------------------------------*- C++ -*----------------------------------*\\
| =========                 |                                                 |
| \\\\      /  F ield         | OpenFOAM: The Open Source CFD Toolbox           |
|  \\\\    /   O peration     | Version:  v2012                                 |
|   \\\\  /    A nd           | Website:  www.openfoam.com                      |
|    \\\\/     M anipulation  |                                                 |
\\*---------------------------------------------------------------------------*/
FoamFile
{
    version     2.0;
    format      ascii;
    class       dictionary;
    object      blockMeshDict;
}
// * * * * * * * * * * * * * * * * * * * * * * * * * * * * * * * * * * * * * //

scale   0.01;

xmin -1;
xmax 5;
ymin 0;
ymax 0.5;
zmin 0;
zmax 0.1;

vertices
(
    (-1.00000000 0.23504225 0.00000000)
    (4.00000000 -0.23992473 0.00000000)
    (4.00000000 0.26007527 0.00000000)
    (-1.00000000 0.73504225 0.00000000)
    (-1.00000000 0.23504225 0.10000000)
    (4.00000000 -0.23992473 0.10000000)
    (4.00000000 0.26007527 0.10000000)
    (-1.00000000 0.73504225 0.10000000)
);

blocks
(
    hex (0 1 2 3 4 5 6 7) (200 20 1) simpleGrading (1 1 1)
);

edges
(
	polyLine 0 1
	(
		(-1.00000000 0.23504225 0.00000000)
		(-0.98000000 0.23504225 0.00000000)
		(-0.96000000 0.23504225 0.00000000)
		(-0.94000000 0.23504225 0.00000000)
		(-0.92000000 0.23504225 0.00000000)
		(-0.90000000 0.23504225 0.00000000)
		(-0.88000000 0.23504225 0.00000000)
		(-0.86000000 0.23504225 0.00000000)
		(-0.84000000 0.23504225 0.00000000)
		(-0.82000000 0.23504225 0.00000000)
		(-0.80000000 0.23504225 0.00000000)
		(-0.78000000 0.23504225 0.00000000)
		(-0.76000000 0.23504225 0.00000000)
		(-0.74000000 0.23504225 0.00000000)
		(-0.72000000 0.23504225 0.00000000)
		(-0.70000000 0.23504225 0.00000000)
		(-0.68000000 0.23504225 0.00000000)
		(-0.66000000 0.23504225 0.00000000)
		(-0.64000000 0.23504225 0.00000000)
		(-0.62000000 0.23504225 0.00000000)
		(-0.60000000 0.23504225 0.00000000)
		(-0.58000000 0.23504225 0.00000000)
		(-0.56000000 0.23504225 0.00000000)
		(-0.54000000 0.23504225 0.00000000)
		(-0.52000000 0.23504225 0.00000000)
		(-0.50000000 0.23504225 0.00000000)
		(-0.48000000 0.23504225 0.00000000)
		(-0.46000000 0.23504225 0.00000000)
		(-0.44000000 0.23504225 0.00000000)
		(-0.42000000 0.23504225 0.00000000)
		(-0.40000000 0.23504225 0.00000000)
		(-0.38000000 0.23504225 0.00000000)
		(-0.36000000 0.23504225 0.00000000)
		(-0.34000000 0.23504225 0.00000000)
		(-0.32000000 0.23504225 0.00000000)
		(-0.30000000 0.23504225 0.00000000)
		(-0.28000000 0.23504225 0.00000000)
		(-0.26000000 0.23504225 0.00000000)
		(-0.24000000 0.23504225 0.00000000)
		(-0.22000000 0.23504225 0.00000000)
		(-0.20000000 0.23504225 0.00000000)
		(-0.18000000 0.23504225 0.00000000)
		(-0.16000000 0.23504225 0.00000000)
		(-0.14000000 0.23504225 0.00000000)
		(-0.12000000 0.23504225 0.00000000)
		(-0.10000000 0.23504225 0.00000000)
		(-0.08162011 0.23517706 0.00000000)
		(-0.06324022 0.23558147 0.00000000)
		(-0.04486034 0.23625549 0.00000000)
		(-0.02648045 0.23719911 0.00000000)
		(-0.00810056 0.23841235 0.00000000)
		(0.01027933 0.23989519 0.00000000)
		(0.02865922 0.24164764 0.00000000)
		(0.04703911 0.24366970 0.00000000)
		(0.06541899 0.24596137 0.00000000)
		(0.08379888 0.24852264 0.00000000)
		(0.10055866 0.24501386 0.00000000)
		(0.11731844 0.23946469 0.00000000)
		(0.13407821 0.23192134 0.00000000)
		(0.15083799 0.22244663 0.00000000)
		(0.16759777 0.21111946 0.00000000)
		(0.18435754 0.19803415 0.00000000)
		(0.20111732 0.18329969 0.00000000)
		(0.21787709 0.16703877 0.00000000)
		(0.23463687 0.14938680 0.00000000)
		(0.25139665 0.13049079 0.00000000)
		(0.26815642 0.11050810 0.00000000)
		(0.28491620 0.08960514 0.00000000)
		(0.30167598 0.06795597 0.00000000)
		(0.31843575 0.04574089 0.00000000)
		(0.33519553 0.02314489 0.00000000)
		(0.35195531 0.00035615 0.00000000)
		(0.36871508 -0.02243555 0.00000000)
		(0.38547486 -0.04504042 0.00000000)
		(0.40223464 -0.06727021 0.00000000)
		(0.41899441 -0.08893979 0.00000000)
		(0.43575419 -0.10986871 0.00000000)
		(0.45251397 -0.12988269 0.00000000)
		(0.46927374 -0.14881504 0.00000000)
		(0.48603352 -0.16650811 0.00000000)
		(0.50279330 -0.18281457 0.00000000)
		(0.51955307 -0.19759860 0.00000000)
		(0.53631285 -0.21073710 0.00000000)
		(0.55307263 -0.22212065 0.00000000)
		(0.56983240 -0.23165445 0.00000000)
		(0.58659218 -0.23925912 0.00000000)
		(0.60335196 -0.24487132 0.00000000)
		(0.62011173 -0.24844431 0.00000000)
		(0.63687151 -0.24994834 0.00000000)
		(0.65363128 -0.24937089 0.00000000)
		(0.67039106 -0.24671676 0.00000000)
		(0.68715084 -0.24200805 0.00000000)
		(0.70391061 -0.23528399 0.00000000)
		(0.72067039 -0.22660056 0.00000000)
		(0.73743017 -0.21603008 0.00000000)
		(0.75418994 -0.20366057 0.00000000)
		(0.77094972 -0.18959504 0.00000000)
		(0.78770950 -0.17395064 0.00000000)
		(0.80446927 -0.15685763 0.00000000)
		(0.82122905 -0.13845836 0.00000000)
		(0.83798883 -0.11890606 0.00000000)
		(0.85474860 -0.09836355 0.00000000)
		(0.87150838 -0.07700190 0.00000000)
		(0.88826816 -0.05499901 0.00000000)
		(0.90502793 -0.03253810 0.00000000)
		(0.92178771 -0.00980623 0.00000000)
		(0.93854749 0.01300731 0.00000000)
		(0.95530726 0.03571253 0.00000000)
		(0.97206704 0.05812034 0.00000000)
		(0.98882682 0.08004415 0.00000000)
		(1.00558659 0.10130138 0.00000000)
		(1.02234637 0.12171500 0.00000000)
		(1.03910615 0.14111502 0.00000000)
		(1.05586592 0.15933989 0.00000000)
		(1.07262570 0.17623782 0.00000000)
		(1.08938547 0.19166811 0.00000000)
		(1.10614525 0.20550225 0.00000000)
		(1.12290503 0.21762504 0.00000000)
		(1.13966480 0.22793551 0.00000000)
		(1.15642458 0.23634782 0.00000000)
		(1.17318436 0.24279191 0.00000000)
		(1.18994413 0.24721410 0.00000000)
		(1.20670391 0.24957758 0.00000000)
		(1.22346369 0.24986267 0.00000000)
		(1.24022346 0.24806698 0.00000000)
		(1.25698324 0.24420547 0.00000000)
		(1.27374302 0.23831031 0.00000000)
		(1.29050279 0.23043057 0.00000000)
		(1.30726257 0.22063189 0.00000000)
		(1.32402235 0.20899586 0.00000000)
		(1.34078212 0.19561938 0.00000000)
		(1.35754190 0.18061385 0.00000000)
		(1.37430168 0.16410423 0.00000000)
		(1.39106145 0.14622801 0.00000000)
		(1.40782123 0.12713405 0.00000000)
		(1.42458101 0.10698136 0.00000000)
		(1.44134078 0.08593776 0.00000000)
		(1.45810056 0.06417851 0.00000000)
		(1.47486034 0.04188480 0.00000000)
		(1.49162011 0.01924228 0.00000000)
		(1.50837989 -0.00356048 0.00000000)
		(1.52513966 -0.02633359 0.00000000)
		(1.54189944 -0.04888740 0.00000000)
		(1.55865922 -0.07103409 0.00000000)
		(1.57541899 -0.09258923 0.00000000)
		(1.59217877 -0.11337333 0.00000000)
		(1.60893855 -0.13321329 0.00000000)
		(1.62569832 -0.15194389 0.00000000)
		(1.64245810 -0.16940916 0.00000000)
		(1.65921788 -0.18546364 0.00000000)
		(1.67597765 -0.19997365 0.00000000)
		(1.69273743 -0.21281834 0.00000000)
		(1.70949721 -0.22389075 0.00000000)
		(1.72625698 -0.23309868 0.00000000)
		(1.74301676 -0.24036544 0.00000000)
		(1.75977654 -0.24563052 0.00000000)
		(1.77653631 -0.24885007 0.00000000)
		(1.79329609 -0.24999728 0.00000000)
		(1.81005587 -0.24906260 0.00000000)
		(1.82681564 -0.24605381 0.00000000)
		(1.84357542 -0.24099597 0.00000000)
		(1.86033520 -0.23393119 0.00000000)
		(1.87709497 -0.22491832 0.00000000)
		(1.89385475 -0.21403240 0.00000000)
		(1.91061453 -0.20136409 0.00000000)
		(1.92737430 -0.18701889 0.00000000)
		(1.94413408 -0.17111626 0.00000000)
		(1.96089385 -0.15378863 0.00000000)
		(1.97765363 -0.13518031 0.00000000)
		(1.99441341 -0.11544624 0.00000000)
		(2.01117318 -0.09475078 0.00000000)
		(2.02793296 -0.07326627 0.00000000)
		(2.04469274 -0.05117162 0.00000000)
		(2.06145251 -0.02865083 0.00000000)
		(2.07821229 -0.00589144 0.00000000)
		(2.09497207 0.01691700 0.00000000)
		(2.11173184 0.03958457 0.00000000)
		(2.12849162 0.06192249 0.00000000)
		(2.14525140 0.08374474 0.00000000)
		(2.16201117 0.10486959 0.00000000)
		(2.17877095 0.12512113 0.00000000)
		(2.19553073 0.14433070 0.00000000)
		(2.21229050 0.16233833 0.00000000)
		(2.22905028 0.17899406 0.00000000)
		(2.24581006 0.19415919 0.00000000)
		(2.26256983 0.20770743 0.00000000)
		(2.27932961 0.21952595 0.00000000)
		(2.29608939 0.22951633 0.00000000)
		(2.31284916 0.23759538 0.00000000)
		(2.32960894 0.24369582 0.00000000)
		(2.34636872 0.24776684 0.00000000)
		(2.36312849 0.24977454 0.00000000)
		(2.37988827 0.24970220 0.00000000)
		(2.39664804 0.24755043 0.00000000)
		(2.41340782 0.24333714 0.00000000)
		(2.43016760 0.23709742 0.00000000)
		(2.44692737 0.22888324 0.00000000)
		(2.46368715 0.21876299 0.00000000)
		(2.48044693 0.20682096 0.00000000)
		(2.49720670 0.19315660 0.00000000)
		(2.51396648 0.17788369 0.00000000)
		(2.53072626 0.16112942 0.00000000)
		(2.54748603 0.14303333 0.00000000)
		(2.56424581 0.12374610 0.00000000)
		(2.58100559 0.10342836 0.00000000)
		(2.59776536 0.08224930 0.00000000)
		(2.61452514 0.06038529 0.00000000)
		(2.63128492 0.03801842 0.00000000)
		(2.64804469 0.01533495 0.00000000)
		(2.66480447 -0.00747624 0.00000000)
		(2.68156425 -0.03022516 0.00000000)
		(2.69832402 -0.05272237 0.00000000)
		(2.71508380 -0.07478054 0.00000000)
		(2.73184358 -0.09621595 0.00000000)
		(2.74860335 -0.11685011 0.00000000)
		(2.76536313 -0.13651119 0.00000000)
		(2.78212291 -0.15503544 0.00000000)
		(2.79888268 -0.17226861 0.00000000)
		(2.81564246 -0.18806719 0.00000000)
		(2.83240223 -0.20229961 0.00000000)
		(2.84916201 -0.21484734 0.00000000)
		(2.86592179 -0.22560590 0.00000000)
		(2.88268156 -0.23448569 0.00000000)
		(2.89944134 -0.24141276 0.00000000)
		(2.91620112 -0.24632943 0.00000000)
		(2.93296089 -0.24919475 0.00000000)
		(2.95166480 -0.24743345 0.00000000)
		(2.97036872 -0.24585755 0.00000000)
		(2.98907263 -0.24446704 0.00000000)
		(3.00777654 -0.24326194 0.00000000)
		(3.02648045 -0.24224224 0.00000000)
		(3.04518436 -0.24140794 0.00000000)
		(3.06388827 -0.24075904 0.00000000)
		(3.08259218 -0.24029553 0.00000000)
		(3.10129609 -0.24001743 0.00000000)
		(3.12000000 -0.23992473 0.00000000)
		(3.14000000 -0.23992473 0.00000000)
		(3.16000000 -0.23992473 0.00000000)
		(3.18000000 -0.23992473 0.00000000)
		(3.20000000 -0.23992473 0.00000000)
		(3.22000000 -0.23992473 0.00000000)
		(3.24000000 -0.23992473 0.00000000)
		(3.26000000 -0.23992473 0.00000000)
		(3.28000000 -0.23992473 0.00000000)
		(3.30000000 -0.23992473 0.00000000)
		(3.32000000 -0.23992473 0.00000000)
		(3.34000000 -0.23992473 0.00000000)
		(3.36000000 -0.23992473 0.00000000)
		(3.38000000 -0.23992473 0.00000000)
		(3.40000000 -0.23992473 0.00000000)
		(3.42000000 -0.23992473 0.00000000)
		(3.44000000 -0.23992473 0.00000000)
		(3.46000000 -0.23992473 0.00000000)
		(3.48000000 -0.23992473 0.00000000)
		(3.50000000 -0.23992473 0.00000000)
		(3.52000000 -0.23992473 0.00000000)
		(3.54000000 -0.23992473 0.00000000)
		(3.56000000 -0.23992473 0.00000000)
		(3.58000000 -0.23992473 0.00000000)
		(3.60000000 -0.23992473 0.00000000)
		(3.62000000 -0.23992473 0.00000000)
		(3.64000000 -0.23992473 0.00000000)
		(3.66000000 -0.23992473 0.00000000)
		(3.68000000 -0.23992473 0.00000000)
		(3.70000000 -0.23992473 0.00000000)
		(3.72000000 -0.23992473 0.00000000)
		(3.74000000 -0.23992473 0.00000000)
		(3.76000000 -0.23992473 0.00000000)
		(3.78000000 -0.23992473 0.00000000)
		(3.80000000 -0.23992473 0.00000000)
		(3.82000000 -0.23992473 0.00000000)
		(3.84000000 -0.23992473 0.00000000)
		(3.86000000 -0.23992473 0.00000000)
		(3.88000000 -0.23992473 0.00000000)
		(3.90000000 -0.23992473 0.00000000)
		(3.92000000 -0.23992473 0.00000000)
		(3.94000000 -0.23992473 0.00000000)
		(3.96000000 -0.23992473 0.00000000)
		(3.98000000 -0.23992473 0.00000000)
		(4.00000000 -0.23992473 0.00000000)
	)
	polyLine 4 5
	(
		(-1.00000000 0.23504225 0.10000000)
		(-0.98000000 0.23504225 0.10000000)
		(-0.96000000 0.23504225 0.10000000)
		(-0.94000000 0.23504225 0.10000000)
		(-0.92000000 0.23504225 0.10000000)
		(-0.90000000 0.23504225 0.10000000)
		(-0.88000000 0.23504225 0.10000000)
		(-0.86000000 0.23504225 0.10000000)
		(-0.84000000 0.23504225 0.10000000)
		(-0.82000000 0.23504225 0.10000000)
		(-0.80000000 0.23504225 0.10000000)
		(-0.78000000 0.23504225 0.10000000)
		(-0.76000000 0.23504225 0.10000000)
		(-0.74000000 0.23504225 0.10000000)
		(-0.72000000 0.23504225 0.10000000)
		(-0.70000000 0.23504225 0.10000000)
		(-0.68000000 0.23504225 0.10000000)
		(-0.66000000 0.23504225 0.10000000)
		(-0.64000000 0.23504225 0.10000000)
		(-0.62000000 0.23504225 0.10000000)
		(-0.60000000 0.23504225 0.10000000)
		(-0.58000000 0.23504225 0.10000000)
		(-0.56000000 0.23504225 0.10000000)
		(-0.54000000 0.23504225 0.10000000)
		(-0.52000000 0.23504225 0.10000000)
		(-0.50000000 0.23504225 0.10000000)
		(-0.48000000 0.23504225 0.10000000)
		(-0.46000000 0.23504225 0.10000000)
		(-0.44000000 0.23504225 0.10000000)
		(-0.42000000 0.23504225 0.10000000)
		(-0.40000000 0.23504225 0.10000000)
		(-0.38000000 0.23504225 0.10000000)
		(-0.36000000 0.23504225 0.10000000)
		(-0.34000000 0.23504225 0.10000000)
		(-0.32000000 0.23504225 0.10000000)
		(-0.30000000 0.23504225 0.10000000)
		(-0.28000000 0.23504225 0.10000000)
		(-0.26000000 0.23504225 0.10000000)
		(-0.24000000 0.23504225 0.10000000)
		(-0.22000000 0.23504225 0.10000000)
		(-0.20000000 0.23504225 0.10000000)
		(-0.18000000 0.23504225 0.10000000)
		(-0.16000000 0.23504225 0.10000000)
		(-0.14000000 0.23504225 0.10000000)
		(-0.12000000 0.23504225 0.10000000)
		(-0.10000000 0.23504225 0.10000000)
		(-0.08162011 0.23517706 0.10000000)
		(-0.06324022 0.23558147 0.10000000)
		(-0.04486034 0.23625549 0.10000000)
		(-0.02648045 0.23719911 0.10000000)
		(-0.00810056 0.23841235 0.10000000)
		(0.01027933 0.23989519 0.10000000)
		(0.02865922 0.24164764 0.10000000)
		(0.04703911 0.24366970 0.10000000)
		(0.06541899 0.24596137 0.10000000)
		(0.08379888 0.24852264 0.10000000)
		(0.10055866 0.24501386 0.10000000)
		(0.11731844 0.23946469 0.10000000)
		(0.13407821 0.23192134 0.10000000)
		(0.15083799 0.22244663 0.10000000)
		(0.16759777 0.21111946 0.10000000)
		(0.18435754 0.19803415 0.10000000)
		(0.20111732 0.18329969 0.10000000)
		(0.21787709 0.16703877 0.10000000)
		(0.23463687 0.14938680 0.10000000)
		(0.25139665 0.13049079 0.10000000)
		(0.26815642 0.11050810 0.10000000)
		(0.28491620 0.08960514 0.10000000)
		(0.30167598 0.06795597 0.10000000)
		(0.31843575 0.04574089 0.10000000)
		(0.33519553 0.02314489 0.10000000)
		(0.35195531 0.00035615 0.10000000)
		(0.36871508 -0.02243555 0.10000000)
		(0.38547486 -0.04504042 0.10000000)
		(0.40223464 -0.06727021 0.10000000)
		(0.41899441 -0.08893979 0.10000000)
		(0.43575419 -0.10986871 0.10000000)
		(0.45251397 -0.12988269 0.10000000)
		(0.46927374 -0.14881504 0.10000000)
		(0.48603352 -0.16650811 0.10000000)
		(0.50279330 -0.18281457 0.10000000)
		(0.51955307 -0.19759860 0.10000000)
		(0.53631285 -0.21073710 0.10000000)
		(0.55307263 -0.22212065 0.10000000)
		(0.56983240 -0.23165445 0.10000000)
		(0.58659218 -0.23925912 0.10000000)
		(0.60335196 -0.24487132 0.10000000)
		(0.62011173 -0.24844431 0.10000000)
		(0.63687151 -0.24994834 0.10000000)
		(0.65363128 -0.24937089 0.10000000)
		(0.67039106 -0.24671676 0.10000000)
		(0.68715084 -0.24200805 0.10000000)
		(0.70391061 -0.23528399 0.10000000)
		(0.72067039 -0.22660056 0.10000000)
		(0.73743017 -0.21603008 0.10000000)
		(0.75418994 -0.20366057 0.10000000)
		(0.77094972 -0.18959504 0.10000000)
		(0.78770950 -0.17395064 0.10000000)
		(0.80446927 -0.15685763 0.10000000)
		(0.82122905 -0.13845836 0.10000000)
		(0.83798883 -0.11890606 0.10000000)
		(0.85474860 -0.09836355 0.10000000)
		(0.87150838 -0.07700190 0.10000000)
		(0.88826816 -0.05499901 0.10000000)
		(0.90502793 -0.03253810 0.10000000)
		(0.92178771 -0.00980623 0.10000000)
		(0.93854749 0.01300731 0.10000000)
		(0.95530726 0.03571253 0.10000000)
		(0.97206704 0.05812034 0.10000000)
		(0.98882682 0.08004415 0.10000000)
		(1.00558659 0.10130138 0.10000000)
		(1.02234637 0.12171500 0.10000000)
		(1.03910615 0.14111502 0.10000000)
		(1.05586592 0.15933989 0.10000000)
		(1.07262570 0.17623782 0.10000000)
		(1.08938547 0.19166811 0.10000000)
		(1.10614525 0.20550225 0.10000000)
		(1.12290503 0.21762504 0.10000000)
		(1.13966480 0.22793551 0.10000000)
		(1.15642458 0.23634782 0.10000000)
		(1.17318436 0.24279191 0.10000000)
		(1.18994413 0.24721410 0.10000000)
		(1.20670391 0.24957758 0.10000000)
		(1.22346369 0.24986267 0.10000000)
		(1.24022346 0.24806698 0.10000000)
		(1.25698324 0.24420547 0.10000000)
		(1.27374302 0.23831031 0.10000000)
		(1.29050279 0.23043057 0.10000000)
		(1.30726257 0.22063189 0.10000000)
		(1.32402235 0.20899586 0.10000000)
		(1.34078212 0.19561938 0.10000000)
		(1.35754190 0.18061385 0.10000000)
		(1.37430168 0.16410423 0.10000000)
		(1.39106145 0.14622801 0.10000000)
		(1.40782123 0.12713405 0.10000000)
		(1.42458101 0.10698136 0.10000000)
		(1.44134078 0.08593776 0.10000000)
		(1.45810056 0.06417851 0.10000000)
		(1.47486034 0.04188480 0.10000000)
		(1.49162011 0.01924228 0.10000000)
		(1.50837989 -0.00356048 0.10000000)
		(1.52513966 -0.02633359 0.10000000)
		(1.54189944 -0.04888740 0.10000000)
		(1.55865922 -0.07103409 0.10000000)
		(1.57541899 -0.09258923 0.10000000)
		(1.59217877 -0.11337333 0.10000000)
		(1.60893855 -0.13321329 0.10000000)
		(1.62569832 -0.15194389 0.10000000)
		(1.64245810 -0.16940916 0.10000000)
		(1.65921788 -0.18546364 0.10000000)
		(1.67597765 -0.19997365 0.10000000)
		(1.69273743 -0.21281834 0.10000000)
		(1.70949721 -0.22389075 0.10000000)
		(1.72625698 -0.23309868 0.10000000)
		(1.74301676 -0.24036544 0.10000000)
		(1.75977654 -0.24563052 0.10000000)
		(1.77653631 -0.24885007 0.10000000)
		(1.79329609 -0.24999728 0.10000000)
		(1.81005587 -0.24906260 0.10000000)
		(1.82681564 -0.24605381 0.10000000)
		(1.84357542 -0.24099597 0.10000000)
		(1.86033520 -0.23393119 0.10000000)
		(1.87709497 -0.22491832 0.10000000)
		(1.89385475 -0.21403240 0.10000000)
		(1.91061453 -0.20136409 0.10000000)
		(1.92737430 -0.18701889 0.10000000)
		(1.94413408 -0.17111626 0.10000000)
		(1.96089385 -0.15378863 0.10000000)
		(1.97765363 -0.13518031 0.10000000)
		(1.99441341 -0.11544624 0.10000000)
		(2.01117318 -0.09475078 0.10000000)
		(2.02793296 -0.07326627 0.10000000)
		(2.04469274 -0.05117162 0.10000000)
		(2.06145251 -0.02865083 0.10000000)
		(2.07821229 -0.00589144 0.10000000)
		(2.09497207 0.01691700 0.10000000)
		(2.11173184 0.03958457 0.10000000)
		(2.12849162 0.06192249 0.10000000)
		(2.14525140 0.08374474 0.10000000)
		(2.16201117 0.10486959 0.10000000)
		(2.17877095 0.12512113 0.10000000)
		(2.19553073 0.14433070 0.10000000)
		(2.21229050 0.16233833 0.10000000)
		(2.22905028 0.17899406 0.10000000)
		(2.24581006 0.19415919 0.10000000)
		(2.26256983 0.20770743 0.10000000)
		(2.27932961 0.21952595 0.10000000)
		(2.29608939 0.22951633 0.10000000)
		(2.31284916 0.23759538 0.10000000)
		(2.32960894 0.24369582 0.10000000)
		(2.34636872 0.24776684 0.10000000)
		(2.36312849 0.24977454 0.10000000)
		(2.37988827 0.24970220 0.10000000)
		(2.39664804 0.24755043 0.10000000)
		(2.41340782 0.24333714 0.10000000)
		(2.43016760 0.23709742 0.10000000)
		(2.44692737 0.22888324 0.10000000)
		(2.46368715 0.21876299 0.10000000)
		(2.48044693 0.20682096 0.10000000)
		(2.49720670 0.19315660 0.10000000)
		(2.51396648 0.17788369 0.10000000)
		(2.53072626 0.16112942 0.10000000)
		(2.54748603 0.14303333 0.10000000)
		(2.56424581 0.12374610 0.10000000)
		(2.58100559 0.10342836 0.10000000)
		(2.59776536 0.08224930 0.10000000)
		(2.61452514 0.06038529 0.10000000)
		(2.63128492 0.03801842 0.10000000)
		(2.64804469 0.01533495 0.10000000)
		(2.66480447 -0.00747624 0.10000000)
		(2.68156425 -0.03022516 0.10000000)
		(2.69832402 -0.05272237 0.10000000)
		(2.71508380 -0.07478054 0.10000000)
		(2.73184358 -0.09621595 0.10000000)
		(2.74860335 -0.11685011 0.10000000)
		(2.76536313 -0.13651119 0.10000000)
		(2.78212291 -0.15503544 0.10000000)
		(2.79888268 -0.17226861 0.10000000)
		(2.81564246 -0.18806719 0.10000000)
		(2.83240223 -0.20229961 0.10000000)
		(2.84916201 -0.21484734 0.10000000)
		(2.86592179 -0.22560590 0.10000000)
		(2.88268156 -0.23448569 0.10000000)
		(2.89944134 -0.24141276 0.10000000)
		(2.91620112 -0.24632943 0.10000000)
		(2.93296089 -0.24919475 0.10000000)
		(2.95166480 -0.24743345 0.10000000)
		(2.97036872 -0.24585755 0.10000000)
		(2.98907263 -0.24446704 0.10000000)
		(3.00777654 -0.24326194 0.10000000)
		(3.02648045 -0.24224224 0.10000000)
		(3.04518436 -0.24140794 0.10000000)
		(3.06388827 -0.24075904 0.10000000)
		(3.08259218 -0.24029553 0.10000000)
		(3.10129609 -0.24001743 0.10000000)
		(3.12000000 -0.23992473 0.10000000)
		(3.14000000 -0.23992473 0.10000000)
		(3.16000000 -0.23992473 0.10000000)
		(3.18000000 -0.23992473 0.10000000)
		(3.20000000 -0.23992473 0.10000000)
		(3.22000000 -0.23992473 0.10000000)
		(3.24000000 -0.23992473 0.10000000)
		(3.26000000 -0.23992473 0.10000000)
		(3.28000000 -0.23992473 0.10000000)
		(3.30000000 -0.23992473 0.10000000)
		(3.32000000 -0.23992473 0.10000000)
		(3.34000000 -0.23992473 0.10000000)
		(3.36000000 -0.23992473 0.10000000)
		(3.38000000 -0.23992473 0.10000000)
		(3.40000000 -0.23992473 0.10000000)
		(3.42000000 -0.23992473 0.10000000)
		(3.44000000 -0.23992473 0.10000000)
		(3.46000000 -0.23992473 0.10000000)
		(3.48000000 -0.23992473 0.10000000)
		(3.50000000 -0.23992473 0.10000000)
		(3.52000000 -0.23992473 0.10000000)
		(3.54000000 -0.23992473 0.10000000)
		(3.56000000 -0.23992473 0.10000000)
		(3.58000000 -0.23992473 0.10000000)
		(3.60000000 -0.23992473 0.10000000)
		(3.62000000 -0.23992473 0.10000000)
		(3.64000000 -0.23992473 0.10000000)
		(3.66000000 -0.23992473 0.10000000)
		(3.68000000 -0.23992473 0.10000000)
		(3.70000000 -0.23992473 0.10000000)
		(3.72000000 -0.23992473 0.10000000)
		(3.74000000 -0.23992473 0.10000000)
		(3.76000000 -0.23992473 0.10000000)
		(3.78000000 -0.23992473 0.10000000)
		(3.80000000 -0.23992473 0.10000000)
		(3.82000000 -0.23992473 0.10000000)
		(3.84000000 -0.23992473 0.10000000)
		(3.86000000 -0.23992473 0.10000000)
		(3.88000000 -0.23992473 0.10000000)
		(3.90000000 -0.23992473 0.10000000)
		(3.92000000 -0.23992473 0.10000000)
		(3.94000000 -0.23992473 0.10000000)
		(3.96000000 -0.23992473 0.10000000)
		(3.98000000 -0.23992473 0.10000000)
		(4.00000000 -0.23992473 0.10000000)
	)
	polyLine 3 2
	(
		(-1.00000000 0.73504225 0.00000000)
		(-0.98000000 0.73586546 0.00000000)
		(-0.96000000 0.73668867 0.00000000)
		(-0.94000000 0.73751188 0.00000000)
		(-0.92000000 0.73833508 0.00000000)
		(-0.90000000 0.73915829 0.00000000)
		(-0.88000000 0.73998150 0.00000000)
		(-0.86000000 0.74080471 0.00000000)
		(-0.84000000 0.74162791 0.00000000)
		(-0.82000000 0.74245112 0.00000000)
		(-0.80000000 0.74327433 0.00000000)
		(-0.78000000 0.74409754 0.00000000)
		(-0.76000000 0.74492075 0.00000000)
		(-0.74000000 0.74574395 0.00000000)
		(-0.72000000 0.74656716 0.00000000)
		(-0.70000000 0.74739037 0.00000000)
		(-0.68000000 0.74821358 0.00000000)
		(-0.66000000 0.74903678 0.00000000)
		(-0.64000000 0.74985999 0.00000000)
		(-0.62000000 0.75068320 0.00000000)
		(-0.60000000 0.75150641 0.00000000)
		(-0.58000000 0.75232961 0.00000000)
		(-0.56000000 0.75315282 0.00000000)
		(-0.54000000 0.75397603 0.00000000)
		(-0.52000000 0.75479924 0.00000000)
		(-0.50000000 0.75562245 0.00000000)
		(-0.48000000 0.75644565 0.00000000)
		(-0.46000000 0.75726886 0.00000000)
		(-0.44000000 0.75809207 0.00000000)
		(-0.42000000 0.75891528 0.00000000)
		(-0.40000000 0.75973848 0.00000000)
		(-0.38000000 0.76056169 0.00000000)
		(-0.36000000 0.76138490 0.00000000)
		(-0.34000000 0.76220811 0.00000000)
		(-0.32000000 0.76303131 0.00000000)
		(-0.30000000 0.76385452 0.00000000)
		(-0.28000000 0.76467773 0.00000000)
		(-0.26000000 0.76550094 0.00000000)
		(-0.24000000 0.76632414 0.00000000)
		(-0.22000000 0.76714735 0.00000000)
		(-0.20000000 0.76797056 0.00000000)
		(-0.18000000 0.76879377 0.00000000)
		(-0.16000000 0.76961698 0.00000000)
		(-0.14000000 0.77044018 0.00000000)
		(-0.12000000 0.77126339 0.00000000)
		(-0.10000000 0.77208660 0.00000000)
		(-0.08162011 0.77255616 0.00000000)
		(-0.06324022 0.77334552 0.00000000)
		(-0.04486034 0.77445469 0.00000000)
		(-0.02648045 0.77588365 0.00000000)
		(-0.00810056 0.77763242 0.00000000)
		(0.01027933 0.77970099 0.00000000)
		(0.02865922 0.78208936 0.00000000)
		(0.04703911 0.78479753 0.00000000)
		(0.06541899 0.78782550 0.00000000)
		(0.08379888 0.79117328 0.00000000)
		(0.10055866 0.78706233 0.00000000)
		(0.11731844 0.78056084 0.00000000)
		(0.13407821 0.77172292 0.00000000)
		(0.15083799 0.76062219 0.00000000)
		(0.16759777 0.74735108 0.00000000)
		(0.18435754 0.73202012 0.00000000)
		(0.20111732 0.71475698 0.00000000)
		(0.21787709 0.69570541 0.00000000)
		(0.23463687 0.67502407 0.00000000)
		(0.25139665 0.65288519 0.00000000)
		(0.26815642 0.62947314 0.00000000)
		(0.28491620 0.60498287 0.00000000)
		(0.30167598 0.57961835 0.00000000)
		(0.31843575 0.55359079 0.00000000)
		(0.33519553 0.52711694 0.00000000)
		(0.35195531 0.50041728 0.00000000)
		(0.36871508 0.47371414 0.00000000)
		(0.38547486 0.44722989 0.00000000)
		(0.40223464 0.42118510 0.00000000)
		(0.41899441 0.39579666 0.00000000)
		(0.43575419 0.37127598 0.00000000)
		(0.45251397 0.34782728 0.00000000)
		(0.46927374 0.32564581 0.00000000)
		(0.48603352 0.30491631 0.00000000)
		(0.50279330 0.28581140 0.00000000)
		(0.51955307 0.26849018 0.00000000)
		(0.53631285 0.25309690 0.00000000)
		(0.55307263 0.23975974 0.00000000)
		(0.56983240 0.22858977 0.00000000)
		(0.58659218 0.21968002 0.00000000)
		(0.60335196 0.21310468 0.00000000)
		(0.62011173 0.20891850 0.00000000)
		(0.63687151 0.20715635 0.00000000)
		(0.65363128 0.20783290 0.00000000)
		(0.67039106 0.21094253 0.00000000)
		(0.68715084 0.21645932 0.00000000)
		(0.70391061 0.22433735 0.00000000)
		(0.72067039 0.23451100 0.00000000)
		(0.73743017 0.24689555 0.00000000)
		(0.75418994 0.26138788 0.00000000)
		(0.77094972 0.27786728 0.00000000)
		(0.78770950 0.29619653 0.00000000)
		(0.80446927 0.31622298 0.00000000)
		(0.82122905 0.33777987 0.00000000)
		(0.83798883 0.36068767 0.00000000)
		(0.85474860 0.38475562 0.00000000)
		(0.87150838 0.40978329 0.00000000)
		(0.88826816 0.43556224 0.00000000)
		(0.90502793 0.46187782 0.00000000)
		(0.92178771 0.48851086 0.00000000)
		(0.93854749 0.51523958 0.00000000)
		(0.95530726 0.54184139 0.00000000)
		(0.97206704 0.56809476 0.00000000)
		(0.98882682 0.59378106 0.00000000)
		(1.00558659 0.61868638 0.00000000)
		(1.02234637 0.64260333 0.00000000)
		(1.03910615 0.66533272 0.00000000)
		(1.05586592 0.68668527 0.00000000)
		(1.07262570 0.70648318 0.00000000)
		(1.08938547 0.72456156 0.00000000)
		(1.10614525 0.74076987 0.00000000)
		(1.12290503 0.75497313 0.00000000)
		(1.13966480 0.76705306 0.00000000)
		(1.15642458 0.77690906 0.00000000)
		(1.17318436 0.78445905 0.00000000)
		(1.18994413 0.78964017 0.00000000)
		(1.20670391 0.79240927 0.00000000)
		(1.22346369 0.79274327 0.00000000)
		(1.24022346 0.79063942 0.00000000)
		(1.25698324 0.78611521 0.00000000)
		(1.27374302 0.77920833 0.00000000)
		(1.29050279 0.76997631 0.00000000)
		(1.30726257 0.75849601 0.00000000)
		(1.32402235 0.74486304 0.00000000)
		(1.34078212 0.72919094 0.00000000)
		(1.35754190 0.71161021 0.00000000)
		(1.37430168 0.69226726 0.00000000)
		(1.39106145 0.67132318 0.00000000)
		(1.40782123 0.64895238 0.00000000)
		(1.42458101 0.62534115 0.00000000)
		(1.44134078 0.60068612 0.00000000)
		(1.45810056 0.57519261 0.00000000)
		(1.47486034 0.54907293 0.00000000)
		(1.49162011 0.52254458 0.00000000)
		(1.50837989 0.49582848 0.00000000)
		(1.52513966 0.46914713 0.00000000)
		(1.54189944 0.44272271 0.00000000)
		(1.55865922 0.41677527 0.00000000)
		(1.57541899 0.39152091 0.00000000)
		(1.59217877 0.36716992 0.00000000)
		(1.60893855 0.34392509 0.00000000)
		(1.62569832 0.32198000 0.00000000)
		(1.64245810 0.30151740 0.00000000)
		(1.65921788 0.28270770 0.00000000)
		(1.67597765 0.26570754 0.00000000)
		(1.69273743 0.25065848 0.00000000)
		(1.70949721 0.23768586 0.00000000)
		(1.72625698 0.22689769 0.00000000)
		(1.74301676 0.21838383 0.00000000)
		(1.75977654 0.21221518 0.00000000)
		(1.77653631 0.20844310 0.00000000)
		(1.79329609 0.20709901 0.00000000)
		(1.81005587 0.20819410 0.00000000)
		(1.82681564 0.21171924 0.00000000)
		(1.84357542 0.21764510 0.00000000)
		(1.86033520 0.22592231 0.00000000)
		(1.87709497 0.23648194 0.00000000)
		(1.89385475 0.24923606 0.00000000)
		(1.91061453 0.26407847 0.00000000)
		(1.92737430 0.28088554 0.00000000)
		(1.94413408 0.29951733 0.00000000)
		(1.96089385 0.31981867 0.00000000)
		(1.97765363 0.34162050 0.00000000)
		(1.99441341 0.36474125 0.00000000)
		(2.01117318 0.38898840 0.00000000)
		(2.02793296 0.41416002 0.00000000)
		(2.04469274 0.44004648 0.00000000)
		(2.06145251 0.46643221 0.00000000)
		(2.07821229 0.49309749 0.00000000)
		(2.09497207 0.51982024 0.00000000)
		(2.11173184 0.54637794 0.00000000)
		(2.12849162 0.57254942 0.00000000)
		(2.14525140 0.59811674 0.00000000)
		(2.16201117 0.62286697 0.00000000)
		(2.17877095 0.64659400 0.00000000)
		(2.19553073 0.66910025 0.00000000)
		(2.21229050 0.69019829 0.00000000)
		(2.22905028 0.70971243 0.00000000)
		(2.24581006 0.72748015 0.00000000)
		(2.26256983 0.74335349 0.00000000)
		(2.27932961 0.75720027 0.00000000)
		(2.29608939 0.76890517 0.00000000)
		(2.31284916 0.77837072 0.00000000)
		(2.32960894 0.78551809 0.00000000)
		(2.34636872 0.79028776 0.00000000)
		(2.36312849 0.79264002 0.00000000)
		(2.37988827 0.79255527 0.00000000)
		(2.39664804 0.79003422 0.00000000)
		(2.41340782 0.78509786 0.00000000)
		(2.43016760 0.77778730 0.00000000)
		(2.44692737 0.76816343 0.00000000)
		(2.46368715 0.75630638 0.00000000)
		(2.48044693 0.74231489 0.00000000)
		(2.49720670 0.72630549 0.00000000)
		(2.51396648 0.70841150 0.00000000)