/*--------------------------------*- C++ -*----------------------------------*\\
/*--------------------------------*- C++ -*----------------------------------*\\
| =========                 |                                                 |
| \\\\      /  F ield         | OpenFOAM: The Open Source CFD Toolbox           |
|  \\\\    /   O peration     | Version:  v2012                                 |
|   \\\\  /    A nd           | Website:  www.openfoam.com                      |
|    \\\\/     M anipulation  |                                                 |
\\*---------------------------------------------------------------------------*/
FoamFile
{
    version     2.0;
    format      ascii;
    class       dictionary;
    object      blockMeshDict;
}
// * * * * * * * * * * * * * * * * * * * * * * * * * * * * * * * * * * * * * //

scale   0.01;

xmin -1;
xmax 5;
ymin 0;
ymax 0.5;
zmin 0;
zmax 0.1;

vertices
(
    (-1.00000000 0.19687448 0.00000000)
    (4.00000000 -0.18376461 0.00000000)
    (4.00000000 0.31623539 0.00000000)
    (-1.00000000 0.69687448 0.00000000)
    (-1.00000000 0.19687448 0.10000000)
    (4.00000000 -0.18376461 0.10000000)
    (4.00000000 0.31623539 0.10000000)
    (-1.00000000 0.69687448 0.10000000)
);

blocks
(
    hex (0 1 2 3 4 5 6 7) (200 20 1) simpleGrading (1 1 1)
);

edges
(
	polyLine 0 1
	(
		(-1.00000000 0.19687448 0.00000000)
		(-0.98000000 0.19687448 0.00000000)
		(-0.96000000 0.19687448 0.00000000)
		(-0.94000000 0.19687448 0.00000000)
		(-0.92000000 0.19687448 0.00000000)
		(-0.90000000 0.19687448 0.00000000)
		(-0.88000000 0.19687448 0.00000000)
		(-0.86000000 0.19687448 0.00000000)
		(-0.84000000 0.19687448 0.00000000)
		(-0.82000000 0.19687448 0.00000000)
		(-0.80000000 0.19687448 0.00000000)
		(-0.78000000 0.19687448 0.00000000)
		(-0.76000000 0.19687448 0.00000000)
		(-0.74000000 0.19687448 0.00000000)
		(-0.72000000 0.19687448 0.00000000)
		(-0.70000000 0.19687448 0.00000000)
		(-0.68000000 0.19687448 0.00000000)
		(-0.66000000 0.19687448 0.00000000)
		(-0.64000000 0.19687448 0.00000000)
		(-0.62000000 0.19687448 0.00000000)
		(-0.60000000 0.19687448 0.00000000)
		(-0.58000000 0.19687448 0.00000000)
		(-0.56000000 0.19687448 0.00000000)
		(-0.54000000 0.19687448 0.00000000)
		(-0.52000000 0.19687448 0.00000000)
		(-0.50000000 0.19687448 0.00000000)
		(-0.48000000 0.19687448 0.00000000)
		(-0.46000000 0.19687448 0.00000000)
		(-0.44000000 0.19687448 0.00000000)
		(-0.42000000 0.19687448 0.00000000)
		(-0.40000000 0.19687448 0.00000000)
		(-0.38000000 0.19687448 0.00000000)
		(-0.36000000 0.19687448 0.00000000)
		(-0.34000000 0.19687448 0.00000000)
		(-0.32000000 0.19687448 0.00000000)
		(-0.30000000 0.19687448 0.00000000)
		(-0.28000000 0.19687448 0.00000000)
		(-0.26000000 0.19687448 0.00000000)
		(-0.24000000 0.19687448 0.00000000)
		(-0.22000000 0.19687448 0.00000000)
		(-0.20000000 0.19687448 0.00000000)
		(-0.18000000 0.19687448 0.00000000)
		(-0.16000000 0.19687448 0.00000000)
		(-0.14000000 0.19687448 0.00000000)
		(-0.12000000 0.19687448 0.00000000)
		(-0.10000000 0.19687448 0.00000000)
		(-0.08162011 0.19612035 0.00000000)
		(-0.06324022 0.19385795 0.00000000)
		(-0.04486034 0.19008728 0.00000000)
		(-0.02648045 0.18480834 0.00000000)
		(-0.00810056 0.17802114 0.00000000)
		(0.01027933 0.16972567 0.00000000)
		(0.02865922 0.15992194 0.00000000)
		(0.04703911 0.14860993 0.00000000)
		(0.06541899 0.13578966 0.00000000)
		(0.08379888 0.12146113 0.00000000)
		(0.10055866 0.10363726 0.00000000)
		(0.11731844 0.08515242 0.00000000)
		(0.13407821 0.06612451 0.00000000)
		(0.15083799 0.04667487 0.00000000)
		(0.16759777 0.02692755 0.00000000)
		(0.18435754 0.00700849 0.00000000)
		(0.20111732 -0.01295526 0.00000000)
		(0.21787709 -0.03283639 0.00000000)
		(0.23463687 -0.05250810 0.00000000)
		(0.25139665 -0.07184492 0.00000000)
		(0.26815642 -0.09072354 0.00000000)
		(0.28491620 -0.10902355 0.00000000)
		(0.30167598 -0.12662823 0.00000000)
		(0.31843575 -0.14342532 0.00000000)
		(0.33519553 -0.15930768 0.00000000)
		(0.35195531 -0.17417401 0.00000000)
		(0.36871508 -0.18792952 0.00000000)
		(0.38547486 -0.20048645 0.00000000)
		(0.40223464 -0.21176475 0.00000000)
		(0.41899441 -0.22169246 0.00000000)
		(0.43575419 -0.23020628 0.00000000)
		(0.45251397 -0.23725190 0.00000000)
		(0.46927374 -0.24278440 0.00000000)
		(0.48603352 -0.24676849 0.00000000)
		(0.50279330 -0.24917875 0.00000000)
		(0.51955307 -0.24999982 0.00000000)
		(0.53631285 -0.24922646 0.00000000)
		(0.55307263 -0.24686360 0.00000000)
		(0.56983240 -0.24292631 0.00000000)
		(0.58659218 -0.23743971 0.00000000)
		(0.60335196 -0.23043877 0.00000000)
		(0.62011173 -0.22196817 0.00000000)
		(0.63687151 -0.21208191 0.00000000)
		(0.65363128 -0.20084305 0.00000000)
		(0.67039106 -0.18832326 0.00000000)
		(0.68715084 -0.17460241 0.00000000)
		(0.70391061 -0.15976798 0.00000000)
		(0.72067039 -0.14391460 0.00000000)
		(0.73743017 -0.12714337 0.00000000)
		(0.75418994 -0.10956126 0.00000000)
		(0.77094972 -0.09128039 0.00000000)
		(0.78770950 -0.07241737 0.00000000)
		(0.80446927 -0.05309248 0.00000000)
		(0.82122905 -0.03342899 0.00000000)
		(0.83798883 -0.01355229 0.00000000)
		(0.85474860 0.00641084 0.00000000)
		(0.87150838 0.02633308 0.00000000)
		(0.88826816 0.04608738 0.00000000)
		(0.90502793 0.06554774 0.00000000)
		(0.92178771 0.08459006 0.00000000)
		(0.93854749 0.10309289 0.00000000)
		(0.95530726 0.12093821 0.00000000)
		(0.97206704 0.13801223 0.00000000)
		(0.98882682 0.15420604 0.00000000)
		(1.00558659 0.16941637 0.00000000)
		(1.02234637 0.18354621 0.00000000)
		(1.03910615 0.19650544 0.00000000)
		(1.05586592 0.20821141 0.00000000)
		(1.07262570 0.21858947 0.00000000)
		(1.08938547 0.22757342 0.00000000)
		(1.10614525 0.23510597 0.00000000)
		(1.12290503 0.24113908 0.00000000)
		(1.13966480 0.24563427 0.00000000)
		(1.15642458 0.24856287 0.00000000)
		(1.17318436 0.24990620 0.00000000)
		(1.18994413 0.24965570 0.00000000)
		(1.20670391 0.24781297 0.00000000)
		(1.22346369 0.24438975 0.00000000)
		(1.24022346 0.23940788 0.00000000)
		(1.25698324 0.23289913 0.00000000)
		(1.27374302 0.22490502 0.00000000)
		(1.29050279 0.21547652 0.00000000)
		(1.30726257 0.20467377 0.00000000)
		(1.32402235 0.19256567 0.00000000)
		(1.34078212 0.17922944 0.00000000)
		(1.35754190 0.16475013 0.00000000)
		(1.37430168 0.14922009 0.00000000)
		(1.39106145 0.13273836 0.00000000)
		(1.40782123 0.11541007 0.00000000)
		(1.42458101 0.09734572 0.00000000)
		(1.44134078 0.07866053 0.00000000)
		(1.45810056 0.05947366 0.00000000)
		(1.47486034 0.03990748 0.00000000)
		(1.49162011 0.02008679 0.00000000)
		(1.50837989 0.00013799 0.00000000)
		(1.52513966 -0.01981170 0.00000000)
		(1.54189944 -0.03963503 0.00000000)
		(1.55865922 -0.05920557 0.00000000)
		(1.57541899 -0.07839852 0.00000000)
		(1.59217877 -0.09709147 0.00000000)
		(1.60893855 -0.11516519 0.00000000)
		(1.62569832 -0.13250443 0.00000000)
		(1.64245810 -0.14899858 0.00000000)
		(1.65921788 -0.16454246 0.00000000)
		(1.67597765 -0.17903694 0.00000000)
		(1.69273743 -0.19238956 0.00000000)
		(1.70949721 -0.20451518 0.00000000)
		(1.72625698 -0.21533646 0.00000000)
		(1.74301676 -0.22478437 0.00000000)
		(1.75977654 -0.23279868 0.00000000)
		(1.77653631 -0.23932826 0.00000000)
		(1.79329609 -0.24433147 0.00000000)
		(1.81005587 -0.24777640 0.00000000)
		(1.82681564 -0.24964107 0.00000000)
		(1.84357542 -0.24991361 0.00000000)
		(1.86033520 -0.24859226 0.00000000)
		(1.87709497 -0.24568547 0.00000000)
		(1.89385475 -0.24121175 0.00000000)
		(1.91061453 -0.23519966 0.00000000)
		(1.92737430 -0.22768752 0.00000000)
		(1.94413408 -0.21872326 0.00000000)
		(1.96089385 -0.20836403 0.00000000)
		(1.97765363 -0.19667592 0.00000000)
		(1.99441341 -0.18373347 0.00000000)
		(2.01117318 -0.16961921 0.00000000)
		(2.02793296 -0.15442317 0.00000000)
		(2.04469274 -0.13824225 0.00000000)
		(2.06145251 -0.12117967 0.00000000)
		(2.07821229 -0.10334424 0.00000000)
		(2.09497207 -0.08484970 0.00000000)
		(2.11173184 -0.06581402 0.00000000)
		(2.12849162 -0.04635859 0.00000000)
		(2.14525140 -0.02660750 0.00000000)
		(2.16201117 -0.00668671 0.00000000)
		(2.17877095 0.01327672 0.00000000)
		(2.19553073 0.03315547 0.00000000)
		(2.21229050 0.05282277 0.00000000)
		(2.22905028 0.07215318 0.00000000)
		(2.24581006 0.09102342 0.00000000)
		(2.26256983 0.10931314 0.00000000)
		(2.27932961 0.12690568 0.00000000)
		(2.29608939 0.14368886 0.00000000)
		(2.31284916 0.15955562 0.00000000)
		(2.32960894 0.17440479 0.00000000)
		(2.34636872 0.18814165 0.00000000)
		(2.36312849 0.20067859 0.00000000)
		(2.37988827 0.21193566 0.00000000)
		(2.39664804 0.22184106 0.00000000)
		(2.41340782 0.23033162 0.00000000)
		(2.43016760 0.23735319 0.00000000)
		(2.44692737 0.24286098 0.00000000)
		(2.46368715 0.24681987 0.00000000)
		(2.48044693 0.24920462 0.00000000)
		(2.49720670 0.25000000 0.00000000)
		(2.51396648 0.24920095 0.00000000)
		(2.53072626 0.24681257 0.00000000)
		(2.54748603 0.24285008 0.00000000)
		(2.56424581 0.23733876 0.00000000)
		(2.58100559 0.23031376 0.00000000)
		(2.59776536 0.22181988 0.00000000)
		(2.61452514 0.21191129 0.00000000)
		(2.63128492 0.20065120 0.00000000)
		(2.64804469 0.18811140 0.00000000)
		(2.66480447 0.17437188 0.00000000)
		(2.68156425 0.15952026 0.00000000)
		(2.69832402 0.14365127 0.00000000)
		(2.71508380 0.12686611 0.00000000)
		(2.73184358 0.10927183 0.00000000)
		(2.74860335 0.09098064 0.00000000)
		(2.76536313 0.07210921 0.00000000)
		(2.78212291 0.05277788 0.00000000)
		(2.79888268 0.03310995 0.00000000)
		(2.81564246 0.01323085 0.00000000)
		(2.83240223 -0.00673263 0.00000000)
		(2.84916201 -0.02665317 0.00000000)
		(2.86592179 -0.04640372 0.00000000)
		(2.88268156 -0.06585832 0.00000000)
		(2.89944134 -0.08489290 0.00000000)
		(2.91620112 -0.10338606 0.00000000)
		(2.93296089 -0.12121984 0.00000000)
		(2.95166480 -0.13310335 0.00000000)
		(2.97036872 -0.14373596 0.00000000)
		(2.98907263 -0.15311767 0.00000000)
		(3.00777654 -0.16124849 0.00000000)
		(3.02648045 -0.16812842 0.00000000)
		(3.04518436 -0.17375745 0.00000000)
		(3.06388827 -0.17813558 0.00000000)
		(3.08259218 -0.18126282 0.00000000)
		(3.10129609 -0.18313916 0.00000000)
		(3.12000000 -0.18376461 0.00000000)
		(3.14000000 -0.18376461 0.00000000)
		(3.16000000 -0.18376461 0.00000000)
		(3.18000000 -0.18376461 0.00000000)
		(3.20000000 -0.18376461 0.00000000)
		(3.22000000 -0.18376461 0.00000000)
		(3.24000000 -0.18376461 0.00000000)
		(3.26000000 -0.18376461 0.00000000)
		(3.28000000 -0.18376461 0.00000000)
		(3.30000000 -0.18376461 0.00000000)
		(3.32000000 -0.18376461 0.00000000)
		(3.34000000 -0.18376461 0.00000000)
		(3.36000000 -0.18376461 0.00000000)
		(3.38000000 -0.18376461 0.00000000)
		(3.40000000 -0.18376461 0.00000000)
		(3.42000000 -0.18376461 0.00000000)
		(3.44000000 -0.18376461 0.00000000)
		(3.46000000 -0.18376461 0.00000000)
		(3.48000000 -0.18376461 0.00000000)
		(3.50000000 -0.18376461 0.00000000)
		(3.52000000 -0.18376461 0.00000000)
		(3.54000000 -0.18376461 0.00000000)
		(3.56000000 -0.18376461 0.00000000)
		(3.58000000 -0.18376461 0.00000000)
		(3.60000000 -0.18376461 0.00000000)
		(3.62000000 -0.18376461 0.00000000)
		(3.64000000 -0.18376461 0.00000000)
		(3.66000000 -0.18376461 0.00000000)
		(3.68000000 -0.18376461 0.00000000)
		(3.70000000 -0.18376461 0.00000000)
		(3.72000000 -0.18376461 0.00000000)
		(3.74000000 -0.18376461 0.00000000)
		(3.76000000 -0.18376461 0.00000000)
		(3.78000000 -0.18376461 0.00000000)
		(3.80000000 -0.18376461 0.00000000)
		(3.82000000 -0.18376461 0.00000000)
		(3.84000000 -0.18376461 0.00000000)
		(3.86000000 -0.18376461 0.00000000)
		(3.88000000 -0.18376461 0.00000000)
		(3.90000000 -0.18376461 0.00000000)
		(3.92000000 -0.18376461 0.00000000)
		(3.94000000 -0.18376461 0.00000000)
		(3.96000000 -0.18376461 0.00000000)
		(3.98000000 -0.18376461 0.00000000)
		(4.00000000 -0.18376461 0.00000000)
	)
	polyLine 4 5
	(
		(-1.00000000 0.19687448 0.10000000)
		(-0.98000000 0.19687448 0.10000000)
		(-0.96000000 0.19687448 0.10000000)
		(-0.94000000 0.19687448 0.10000000)
		(-0.92000000 0.19687448 0.10000000)
		(-0.90000000 0.19687448 0.10000000)
		(-0.88000000 0.19687448 0.10000000)
		(-0.86000000 0.19687448 0.10000000)
		(-0.84000000 0.19687448 0.10000000)
		(-0.82000000 0.19687448 0.10000000)
		(-0.80000000 0.19687448 0.10000000)
		(-0.78000000 0.19687448 0.10000000)
		(-0.76000000 0.19687448 0.10000000)
		(-0.74000000 0.19687448 0.10000000)
		(-0.72000000 0.19687448 0.10000000)
		(-0.70000000 0.19687448 0.10000000)
		(-0.68000000 0.19687448 0.10000000)
		(-0.66000000 0.19687448 0.10000000)
		(-0.64000000 0.19687448 0.10000000)
		(-0.62000000 0.19687448 0.10000000)
		(-0.60000000 0.19687448 0.10000000)
		(-0.58000000 0.19687448 0.10000000)
		(-0.56000000 0.19687448 0.10000000)
		(-0.54000000 0.19687448 0.10000000)
		(-0.52000000 0.19687448 0.10000000)
		(-0.50000000 0.19687448 0.10000000)
		(-0.48000000 0.19687448 0.10000000)
		(-0.46000000 0.19687448 0.10000000)
		(-0.44000000 0.19687448 0.10000000)
		(-0.42000000 0.19687448 0.10000000)
		(-0.40000000 0.19687448 0.10000000)
		(-0.38000000 0.19687448 0.10000000)
		(-0.36000000 0.19687448 0.10000000)
		(-0.34000000 0.19687448 0.10000000)
		(-0.32000000 0.19687448 0.10000000)
		(-0.30000000 0.19687448 0.10000000)
		(-0.28000000 0.19687448 0.10000000)
		(-0.26000000 0.19687448 0.10000000)
		(-0.24000000 0.19687448 0.10000000)
		(-0.22000000 0.19687448 0.10000000)
		(-0.20000000 0.19687448 0.10000000)
		(-0.18000000 0.19687448 0.10000000)
		(-0.16000000 0.19687448 0.10000000)
		(-0.14000000 0.19687448 0.10000000)
		(-0.12000000 0.19687448 0.10000000)
		(-0.10000000 0.19687448 0.10000000)
		(-0.08162011 0.19612035 0.10000000)
		(-0.06324022 0.19385795 0.10000000)
		(-0.04486034 0.19008728 0.10000000)
		(-0.02648045 0.18480834 0.10000000)
		(-0.00810056 0.17802114 0.10000000)
		(0.01027933 0.16972567 0.10000000)
		(0.02865922 0.15992194 0.10000000)
		(0.04703911 0.14860993 0.10000000)
		(0.06541899 0.13578966 0.10000000)
		(0.08379888 0.12146113 0.10000000)
		(0.10055866 0.10363726 0.10000000)
		(0.11731844 0.08515242 0.10000000)
		(0.13407821 0.06612451 0.10000000)
		(0.15083799 0.04667487 0.10000000)
		(0.16759777 0.02692755 0.10000000)
		(0.18435754 0.00700849 0.10000000)
		(0.20111732 -0.01295526 0.10000000)
		(0.21787709 -0.03283639 0.10000000)
		(0.23463687 -0.05250810 0.10000000)
		(0.25139665 -0.07184492 0.10000000)
		(0.26815642 -0.09072354 0.10000000)
		(0.28491620 -0.10902355 0.10000000)
		(0.30167598 -0.12662823 0.10000000)
		(0.31843575 -0.14342532 0.10000000)
		(0.33519553 -0.15930768 0.10000000)
		(0.35195531 -0.17417401 0.10000000)
		(0.36871508 -0.18792952 0.10000000)
		(0.38547486 -0.20048645 0.10000000)
		(0.40223464 -0.21176475 0.10000000)
		(0.41899441 -0.22169246 0.10000000)
		(0.43575419 -0.23020628 0.10000000)
		(0.45251397 -0.23725190 0.10000000)
		(0.46927374 -0.24278440 0.10000000)
		(0.48603352 -0.24676849 0.10000000)
		(0.50279330 -0.24917875 0.10000000)
		(0.51955307 -0.24999982 0.10000000)
		(0.53631285 -0.24922646 0.10000000)
		(0.55307263 -0.24686360 0.10000000)
		(0.56983240 -0.24292631 0.10000000)
		(0.58659218 -0.23743971 0.10000000)
		(0.60335196 -0.23043877 0.10000000)
		(0.62011173 -0.22196817 0.10000000)
		(0.63687151 -0.21208191 0.10000000)
		(0.65363128 -0.20084305 0.10000000)
		(0.67039106 -0.18832326 0.10000000)
		(0.68715084 -0.17460241 0.10000000)
		(0.70391061 -0.15976798 0.10000000)
		(0.72067039 -0.14391460 0.10000000)
		(0.73743017 -0.12714337 0.10000000)
		(0.75418994 -0.10956126 0.10000000)
		(0.77094972 -0.09128039 0.10000000)
		(0.78770950 -0.07241737 0.10000000)
		(0.80446927 -0.05309248 0.10000000)
		(0.82122905 -0.03342899 0.10000000)
		(0.83798883 -0.01355229 0.10000000)
		(0.85474860 0.00641084 0.10000000)
		(0.87150838 0.02633308 0.10000000)
		(0.88826816 0.04608738 0.10000000)
		(0.90502793 0.06554774 0.10000000)
		(0.92178771 0.08459006 0.10000000)
		(0.93854749 0.10309289 0.10000000)
		(0.95530726 0.12093821 0.10000000)
		(0.97206704 0.13801223 0.10000000)
		(0.98882682 0.15420604 0.10000000)
		(1.00558659 0.16941637 0.10000000)
		(1.02234637 0.18354621 0.10000000)
		(1.03910615 0.19650544 0.10000000)
		(1.05586592 0.20821141 0.10000000)
		(1.07262570 0.21858947 0.10000000)
		(1.08938547 0.22757342 0.10000000)
		(1.10614525 0.23510597 0.10000000)
		(1.12290503 0.24113908 0.10000000)
		(1.13966480 0.24563427 0.10000000)
		(1.15642458 0.24856287 0.10000000)
		(1.17318436 0.24990620 0.10000000)
		(1.18994413 0.24965570 0.10000000)
		(1.20670391 0.24781297 0.10000000)
		(1.22346369 0.24438975 0.10000000)
		(1.24022346 0.23940788 0.10000000)
		(1.25698324 0.23289913 0.10000000)
		(1.27374302 0.22490502 0.10000000)
		(1.29050279 0.21547652 0.10000000)
		(1.30726257 0.20467377 0.10000000)
		(1.32402235 0.19256567 0.10000000)
		(1.34078212 0.17922944 0.10000000)
		(1.35754190 0.16475013 0.10000000)
		(1.37430168 0.14922009 0.10000000)
		(1.39106145 0.13273836 0.10000000)
		(1.40782123 0.11541007 0.10000000)
		(1.42458101 0.09734572 0.10000000)
		(1.44134078 0.07866053 0.10000000)
		(1.45810056 0.05947366 0.10000000)
		(1.47486034 0.03990748 0.10000000)
		(1.49162011 0.02008679 0.10000000)
		(1.50837989 0.00013799 0.10000000)
		(1.52513966 -0.01981170 0.10000000)
		(1.54189944 -0.03963503 0.10000000)
		(1.55865922 -0.05920557 0.10000000)
		(1.57541899 -0.07839852 0.10000000)
		(1.59217877 -0.09709147 0.10000000)
		(1.60893855 -0.11516519 0.10000000)
		(1.62569832 -0.13250443 0.10000000)
		(1.64245810 -0.14899858 0.10000000)
		(1.65921788 -0.16454246 0.10000000)
		(1.67597765 -0.17903694 0.10000000)
		(1.69273743 -0.19238956 0.10000000)
		(1.70949721 -0.20451518 0.10000000)
		(1.72625698 -0.21533646 0.10000000)
		(1.74301676 -0.22478437 0.10000000)
		(1.75977654 -0.23279868 0.10000000)
		(1.77653631 -0.23932826 0.10000000)
		(1.79329609 -0.24433147 0.10000000)
		(1.81005587 -0.24777640 0.10000000)
		(1.82681564 -0.24964107 0.10000000)
		(1.84357542 -0.24991361 0.10000000)
		(1.86033520 -0.24859226 0.10000000)
		(1.87709497 -0.24568547 0.10000000)
		(1.89385475 -0.24121175 0.10000000)
		(1.91061453 -0.23519966 0.10000000)
		(1.92737430 -0.22768752 0.10000000)
		(1.94413408 -0.21872326 0.10000000)
		(1.96089385 -0.20836403 0.10000000)
		(1.97765363 -0.19667592 0.10000000)
		(1.99441341 -0.18373347 0.10000000)
		(2.01117318 -0.16961921 0.10000000)
		(2.02793296 -0.15442317 0.10000000)
		(2.04469274 -0.13824225 0.10000000)
		(2.06145251 -0.12117967 0.10000000)
		(2.07821229 -0.10334424 0.10000000)
		(2.09497207 -0.08484970 0.10000000)
		(2.11173184 -0.06581402 0.10000000)
		(2.12849162 -0.04635859 0.10000000)
		(2.14525140 -0.02660750 0.10000000)
		(2.16201117 -0.00668671 0.10000000)
		(2.17877095 0.01327672 0.10000000)
		(2.19553073 0.03315547 0.10000000)
		(2.21229050 0.05282277 0.10000000)
		(2.22905028 0.07215318 0.10000000)
		(2.24581006 0.09102342 0.10000000)
		(2.26256983 0.10931314 0.10000000)
		(2.27932961 0.12690568 0.10000000)
		(2.29608939 0.14368886 0.10000000)
		(2.31284916 0.15955562 0.10000000)
		(2.32960894 0.17440479 0.10000000)
		(2.34636872 0.18814165 0.10000000)
		(2.36312849 0.20067859 0.10000000)
		(2.37988827 0.21193566 0.10000000)
		(2.39664804 0.22184106 0.10000000)
		(2.41340782 0.23033162 0.10000000)
		(2.43016760 0.23735319 0.10000000)
		(2.44692737 0.24286098 0.10000000)
		(2.46368715 0.24681987 0.10000000)
		(2.48044693 0.24920462 0.10000000)
		(2.49720670 0.25000000 0.10000000)
		(2.51396648 0.24920095 0.10000000)
		(2.53072626 0.24681257 0.10000000)
		(2.54748603 0.24285008 0.10000000)
		(2.56424581 0.23733876 0.10000000)
		(2.58100559 0.23031376 0.10000000)
		(2.59776536 0.22181988 0.10000000)
		(2.61452514 0.21191129 0.10000000)
		(2.63128492 0.20065120 0.10000000)
		(2.64804469 0.18811140 0.10000000)
		(2.66480447 0.17437188 0.10000000)
		(2.68156425 0.15952026 0.10000000)
		(2.69832402 0.14365127 0.10000000)
		(2.71508380 0.12686611 0.10000000)
		(2.73184358 0.10927183 0.10000000)
		(2.74860335 0.09098064 0.10000000)
		(2.76536313 0.07210921 0.10000000)
		(2.78212291 0.05277788 0.10000000)
		(2.79888268 0.03310995 0.10000000)
		(2.81564246 0.01323085 0.10000000)
		(2.83240223 -0.00673263 0.10000000)
		(2.84916201 -0.02665317 0.10000000)
		(2.86592179 -0.04640372 0.10000000)
		(2.88268156 -0.06585832 0.10000000)
		(2.89944134 -0.08489290 0.10000000)
		(2.91620112 -0.10338606 0.10000000)
		(2.93296089 -0.12121984 0.10000000)
		(2.95166480 -0.13310335 0.10000000)
		(2.97036872 -0.14373596 0.10000000)
		(2.98907263 -0.15311767 0.10000000)
		(3.00777654 -0.16124849 0.10000000)
		(3.02648045 -0.16812842 0.10000000)
		(3.04518436 -0.17375745 0.10000000)
		(3.06388827 -0.17813558 0.10000000)
		(3.08259218 -0.18126282 0.10000000)
		(3.10129609 -0.18313916 0.10000000)
		(3.12000000 -0.18376461 0.10000000)
		(3.14000000 -0.18376461 0.10000000)
		(3.16000000 -0.18376461 0.10000000)
		(3.18000000 -0.18376461 0.10000000)
		(3.20000000 -0.18376461 0.10000000)
		(3.22000000 -0.18376461 0.10000000)
		(3.24000000 -0.18376461 0.10000000)
		(3.26000000 -0.18376461 0.10000000)
		(3.28000000 -0.18376461 0.10000000)
		(3.30000000 -0.18376461 0.10000000)
		(3.32000000 -0.18376461 0.10000000)
		(3.34000000 -0.18376461 0.10000000)
		(3.36000000 -0.18376461 0.10000000)
		(3.38000000 -0.18376461 0.10000000)
		(3.40000000 -0.18376461 0.10000000)
		(3.42000000 -0.18376461 0.10000000)
		(3.44000000 -0.18376461 0.10000000)
		(3.46000000 -0.18376461 0.10000000)
		(3.48000000 -0.18376461 0.10000000)
		(3.50000000 -0.18376461 0.10000000)
		(3.52000000 -0.18376461 0.10000000)
		(3.54000000 -0.18376461 0.10000000)
		(3.56000000 -0.18376461 0.10000000)
		(3.58000000 -0.18376461 0.10000000)
		(3.60000000 -0.18376461 0.10000000)
		(3.62000000 -0.18376461 0.10000000)
		(3.64000000 -0.18376461 0.10000000)
		(3.66000000 -0.18376461 0.10000000)
		(3.68000000 -0.18376461 0.10000000)
		(3.70000000 -0.18376461 0.10000000)
		(3.72000000 -0.18376461 0.10000000)
		(3.74000000 -0.18376461 0.10000000)
		(3.76000000 -0.18376461 0.10000000)
		(3.78000000 -0.18376461 0.10000000)
		(3.80000000 -0.18376461 0.10000000)
		(3.82000000 -0.18376461 0.10000000)
		(3.84000000 -0.18376461 0.10000000)
		(3.86000000 -0.18376461 0.10000000)
		(3.88000000 -0.18376461 0.10000000)
		(3.90000000 -0.18376461 0.10000000)
		(3.92000000 -0.18376461 0.10000000)
		(3.94000000 -0.18376461 0.10000000)
		(3.96000000 -0.18376461 0.10000000)
		(3.98000000 -0.18376461 0.10000000)
		(4.00000000 -0.18376461 0.10000000)
	)
	polyLine 3 2
	(
		(-1.00000000 0.69687448 0.00000000)
		(-0.98000000 0.70088390 0.00000000)
		(-0.96000000 0.70489332 0.00000000)
		(-0.94000000 0.70890274 0.00000000)
		(-0.92000000 0.71291216 0.00000000)
		(-0.90000000 0.71692159 0.00000000)
		(-0.88000000 0.72093101 0.00000000)
		(-0.86000000 0.72494043 0.00000000)
		(-0.84000000 0.72894985 0.00000000)
		(-0.82000000 0.73295927 0.00000000)
		(-0.80000000 0.73696869 0.00000000)
		(-0.78000000 0.74097811 0.00000000)
		(-0.76000000 0.74498754 0.00000000)
		(-0.74000000 0.74899696 0.00000000)
		(-0.72000000 0.75300638 0.00000000)
		(-0.70000000 0.75701580 0.00000000)
		(-0.68000000 0.76102522 0.00000000)
		(-0.66000000 0.76503464 0.00000000)
		(-0.64000000 0.76904406 0.00000000)
		(-0.62000000 0.77305349 0.00000000)
		(-0.60000000 0.77706291 0.00000000)
		(-0.58000000 0.78107233 0.00000000)
		(-0.56000000 0.78508175 0.00000000)
		(-0.54000000 0.78909117 0.00000000)
		(-0.52000000 0.79310059 0.00000000)
		(-0.50000000 0.79711001 0.00000000)
		(-0.48000000 0.80111944 0.00000000)
		(-0.46000000 0.80512886 0.00000000)
		(-0.44000000 0.80913828 0.00000000)
		(-0.42000000 0.81314770 0.00000000)
		(-0.40000000 0.81715712 0.00000000)
		(-0.38000000 0.82116654 0.00000000)
		(-0.36000000 0.82517596 0.00000000)
		(-0.34000000 0.82918539 0.00000000)
		(-0.32000000 0.83319481 0.00000000)
		(-0.30000000 0.83720423 0.00000000)
		(-0.28000000 0.84121365 0.00000000)
		(-0.26000000 0.84522307 0.00000000)
		(-0.24000000 0.84923249 0.00000000)
		(-0.22000000 0.85324191 0.00000000)
		(-0.20000000 0.85725134 0.00000000)
		(-0.18000000 0.86126076 0.00000000)
		(-0.16000000 0.86527018 0.00000000)
		(-0.14000000 0.86927960 0.00000000)
		(-0.12000000 0.87328902 0.00000000)
		(-0.10000000 0.87729844 0.00000000)
		(-0.08162011 0.88110922 0.00000000)
		(-0.06324022 0.88108136 0.00000000)
		(-0.04486034 0.87721486 0.00000000)
		(-0.02648045 0.86950973 0.00000000)
		(-0.00810056 0.85796596 0.00000000)
		(0.01027933 0.84258355 0.00000000)
		(0.02865922 0.82336251 0.00000000)
		(0.04703911 0.80030283 0.00000000)
		(0.06541899 0.77340451 0.00000000)
		(0.08379888 0.74266756 0.00000000)
		(0.10055866 0.70705720 0.00000000)
		(0.11731844 0.67012629 0.00000000)
		(0.13407821 0.63211036 0.00000000)
		(0.15083799 0.59325186 0.00000000)
		(0.16759777 0.55379863 0.00000000)
		(0.18435754 0.51400229 0.00000000)
		(0.20111732 0.47411664 0.00000000)
		(0.21787709 0.43439607 0.00000000)
		(0.23463687 0.39509391 0.00000000)
		(0.25139665 0.35646081 0.00000000)
		(0.26815642 0.31874316 0.00000000)
		(0.28491620 0.28218152 0.00000000)
		(0.30167598 0.24700906 0.00000000)
		(0.31843575 0.21345011 0.00000000)
		(0.33519553 0.18171870 0.00000000)
		(0.35195531 0.15201720 0.00000000)
		(0.36871508 0.12453504 0.00000000)
		(0.38547486 0.09944750 0.00000000)
		(0.40223464 0.07691456 0.00000000)
		(0.41899441 0.05707995 0.00000000)
		(0.43575419 0.04007017 0.00000000)
		(0.45251397 0.02599369 0.00000000)
		(0.46927374 0.01494030 0.00000000)
		(0.48603352 0.00698048 0.00000000)
		(0.50279330 0.00216501 0.00000000)
		(0.51955307 0.00052459 0.00000000)
		(0.53631285 0.00206969 0.00000000)
		(0.55307263 0.00679045 0.00000000)
		(0.56983240 0.01465677 0.00000000)
		(0.58659218 0.02561848 0.00000000)
		(0.60335196 0.03960566 0.00000000)
		(0.62011173 0.05652912 0.00000000)
		(0.63687151 0.07628091 0.00000000)
		(0.65363128 0.09873506 0.00000000)
		(0.67039106 0.12374837 0.00000000)
		(0.68715084 0.15116131 0.00000000)
		(0.70391061 0.18079906 0.00000000)
		(0.72067039 0.21247257 0.00000000)
		(0.73743017 0.24597986 0.00000000)
		(0.75418994 0.28110722 0.00000000)
		(0.77094972 0.31763062 0.00000000)
		(0.78770950 0.35531712 0.00000000)
		(0.80446927 0.39392637 0.00000000)
		(0.82122905 0.43321212 0.00000000)
		(0.83798883 0.47292384 0.00000000)
		(0.85474860 0.51280823 0.00000000)
		(0.87150838 0.55261094 0.00000000)
		(0.88826816 0.59207811 0.00000000)
		(0.90502793 0.63095803 0.00000000)
		(0.92178771 0.66900274 0.00000000)
		(0.93854749 0.70596959 0.00000000)
		(0.95530726 0.74162283 0.00000000)
		(0.97206704 0.77573506 0.00000000)
		(0.98882682 0.80808873 0.00000000)
		(1.00558659 0.83847749 0.00000000)
		(1.02234637 0.86670754 0.00000000)
		(1.03910615 0.89259882 0.00000000)
		(1.05586592 0.91598622 0.00000000)
		(1.07262570 0.93672057 0.00000000)
		(1.08938547 0.95466963 0.00000000)
		(1.10614525 0.96971894 0.00000000)
		(1.12290503 0.98177250 0.00000000)
		(1.13966480 0.99075346 0.00000000)
		(1.15642458 0.99660452 0.00000000)
		(1.17318436 0.99928837 0.00000000)
		(1.18994413 0.99878790 0.00000000)
		(1.20670391 0.99510629 0.00000000)
		(1.22346369 0.98826704 0.00000000)
		(1.24022346 0.97831374 0.00000000)
		(1.25698324 0.96530990 0.00000000)
		(1.27374302 0.94933843 0.00000000)
		(1.29050279 0.93050121 0.00000000)
		(1.30726257 0.90891836 0.00000000)
		(1.32402235 0.88472755 0.00000000)
		(1.34078212 0.85808305 0.00000000)
		(1.35754190 0.82915479 0.00000000)
		(1.37430168 0.79812728 0.00000000)
		(1.39106145 0.76519839 0.00000000)
		(1.40782123 0.73057813 0.00000000)
		(1.42458101 0.69448731 0.00000000)
		(1.44134078 0.65715611 0.00000000)
		(1.45810056 0.61882260 0.00000000)
		(1.47486034 0.57973128 0.00000000)
		(1.49162011 0.54013146 0.00000000)
		(1.50837989 0.50027568 0.00000000)
		(1.52513966 0.46041815 0.00000000)
		(1.54189944 0.42081306 0.00000000)
		(1.55865922 0.38171300 0.00000000)
		(1.57541899 0.34336735 0.00000000)
		(1.59217877 0.30602065 0.00000000)
		(1.60893855 0.26991110 0.00000000)
		(1.62569832 0.23526900 0.00000000)
		(1.64245810 0.20231528 0.00000000)
		(1.65921788 0.17126011 0.00000000)
		(1.67597765 0.14230156 0.00000000)
		(1.69273743 0.11562430 0.00000000)
		(1.70949721 0.09139849 0.00000000)
		(1.72625698 0.06977863 0.00000000)
		(1.74301676 0.05090261 0.00000000)
		(1.75977654 0.03489080 0.00000000)
		(1.77653631 0.02184534 0.00000000)
		(1.79329609 0.01184941 0.00000000)
		(1.81005587 0.00496678 0.00000000)
		(1.82681564 0.00124133 0.00000000)
		(1.84357542 0.00069683 0.00000000)
		(1.86033520 0.00333675 0.00000000)
		(1.87709497 0.00914425 0.00000000)
		(1.89385475 0.01808230 0.00000000)
		(1.91061453 0.03009388 0.00000000)
		(1.92737430 0.04510240 0.00000000)
		(1.94413408 0.06301213 0.00000000)
		(1.96089385 0.08370885 0.00000000)
		(1.97765363 0.10706057 0.00000000)
		(1.99441341 0.13291834 0.00000000)
		(2.01117318 0.16111726 0.00000000)
		(2.02793296 0.19147748 0.00000000)
		(2.04469274 0.22380537 0.00000000)
		(2.06145251 0.25789476 0.00000000)
		(2.07821229 0.29352823 0.00000000)
		(2.09497207 0.33047852 0.00000000)
		(2.11173184 0.36850997 0.00000000)
		(2.12849162 0.40738003 0.00000000)
		(2.14525140 0.44684079 0.00000000)
		(2.16201117 0.48664059 0.00000000)
		(2.17877095 0.52652559 0.00000000)
		(2.19553073 0.56624142 0.00000000)
		(2.21229050 0.60553478 0.00000000)
		(2.22905028 0.64415507 0.00000000)
		(2.24581006 0.68185597 0.00000000)
		(2.26256983 0.71839705 0.00000000)
		(2.27932961 0.75354525 0.00000000)
		(2.29608939 0.78707641 0.00000000)
		(2.31284916 0.81877667 0.00000000)
		(2.32960894 0.84844386 0.00000000)
		(2.34636872 0.87588878 0.00000000)
		(2.36312849 0.90093637 0.00000000)
		(2.37988827 0.92342690 0.00000000)
		(2.39664804 0.94321694 0.00000000)
		(2.41340782 0.96018025 0.00000000)
		(2.43016760 0.97420866 0.00000000)
		(2.44692737 0.98521270 0.00000000)
		(2.46368715 0.99312218 0.00000000)
		(2.48044693 0.99788667 0.00000000)
		(2.49720670 0.99947577 0.00000000)
		(2.51396648 0.99787935 0.00000000)