/*--------------------------------*- C++ -*----------------------------------*\\
/*--------------------------------*- C++ -*----------------------------------*\\
| =========                 |                                                 |
| \\\\      /  F ield         | OpenFOAM: The Open Source CFD Toolbox           |
|  \\\\    /   O peration     | Version:  v2012                                 |
|   \\\\  /    A nd           | Website:  www.openfoam.com                      |
|    \\\\/     M anipulation  |                                                 |
\\*---------------------------------------------------------------------------*/
FoamFile
{
    version     2.0;
    format      ascii;
    class       dictionary;
    object      blockMeshDict;
}
// * * * * * * * * * * * * * * * * * * * * * * * * * * * * * * * * * * * * * //

scale   0.01;

xmin -1;
xmax 5;
ymin 0;
ymax 0.5;
zmin 0;
zmax 0.1;

vertices
(
    (-1.00000000 -0.15916411 0.00000000)
    (4.00000000 -0.03673690 0.00000000)
    (4.00000000 0.46326310 0.00000000)
    (-1.00000000 0.34083589 0.00000000)
    (-1.00000000 -0.15916411 0.10000000)
    (4.00000000 -0.03673690 0.10000000)
    (4.00000000 0.46326310 0.10000000)
    (-1.00000000 0.34083589 0.10000000)
);

blocks
(
    hex (0 1 2 3 4 5 6 7) (200 20 1) simpleGrading (1 1 1)
);

edges
(
	polyLine 0 1
	(
		(-1.00000000 -0.15916411 0.00000000)
		(-0.98000000 -0.15916411 0.00000000)
		(-0.96000000 -0.15916411 0.00000000)
		(-0.94000000 -0.15916411 0.00000000)
		(-0.92000000 -0.15916411 0.00000000)
		(-0.90000000 -0.15916411 0.00000000)
		(-0.88000000 -0.15916411 0.00000000)
		(-0.86000000 -0.15916411 0.00000000)
		(-0.84000000 -0.15916411 0.00000000)
		(-0.82000000 -0.15916411 0.00000000)
		(-0.80000000 -0.15916411 0.00000000)
		(-0.78000000 -0.15916411 0.00000000)
		(-0.76000000 -0.15916411 0.00000000)
		(-0.74000000 -0.15916411 0.00000000)
		(-0.72000000 -0.15916411 0.00000000)
		(-0.70000000 -0.15916411 0.00000000)
		(-0.68000000 -0.15916411 0.00000000)
		(-0.66000000 -0.15916411 0.00000000)
		(-0.64000000 -0.15916411 0.00000000)
		(-0.62000000 -0.15916411 0.00000000)
		(-0.60000000 -0.15916411 0.00000000)
		(-0.58000000 -0.15916411 0.00000000)
		(-0.56000000 -0.15916411 0.00000000)
		(-0.54000000 -0.15916411 0.00000000)
		(-0.52000000 -0.15916411 0.00000000)
		(-0.50000000 -0.15916411 0.00000000)
		(-0.48000000 -0.15916411 0.00000000)
		(-0.46000000 -0.15916411 0.00000000)
		(-0.44000000 -0.15916411 0.00000000)
		(-0.42000000 -0.15916411 0.00000000)
		(-0.40000000 -0.15916411 0.00000000)
		(-0.38000000 -0.15916411 0.00000000)
		(-0.36000000 -0.15916411 0.00000000)
		(-0.34000000 -0.15916411 0.00000000)
		(-0.32000000 -0.15916411 0.00000000)
		(-0.30000000 -0.15916411 0.00000000)
		(-0.28000000 -0.15916411 0.00000000)
		(-0.26000000 -0.15916411 0.00000000)
		(-0.24000000 -0.15916411 0.00000000)
		(-0.22000000 -0.15916411 0.00000000)
		(-0.20000000 -0.15916411 0.00000000)
		(-0.18000000 -0.15916411 0.00000000)
		(-0.16000000 -0.15916411 0.00000000)
		(-0.14000000 -0.15916411 0.00000000)
		(-0.12000000 -0.15916411 0.00000000)
		(-0.10000000 -0.15916411 0.00000000)
		(-0.08162011 -0.15836832 0.00000000)
		(-0.06324022 -0.15598097 0.00000000)
		(-0.04486034 -0.15200204 0.00000000)
		(-0.02648045 -0.14643154 0.00000000)
		(-0.00810056 -0.13926947 0.00000000)
		(0.01027933 -0.13051583 0.00000000)
		(0.02865922 -0.12017062 0.00000000)
		(0.04703911 -0.10823384 0.00000000)
		(0.06541899 -0.09470549 0.00000000)
		(0.08379888 -0.07958556 0.00000000)
		(0.10055866 -0.06203152 0.00000000)
		(0.11731844 -0.04414493 0.00000000)
		(0.13407821 -0.02602168 0.00000000)
		(0.15083799 -0.00775893 0.00000000)
		(0.16759777 0.01054541 0.00000000)
		(0.18435754 0.02879322 0.00000000)
		(0.20111732 0.04688667 0.00000000)
		(0.21787709 0.06472877 0.00000000)
		(0.23463687 0.08222385 0.00000000)
		(0.25139665 0.09927814 0.00000000)
		(0.26815642 0.11580021 0.00000000)
		(0.28491620 0.13170147 0.00000000)
		(0.30167598 0.14689669 0.00000000)
		(0.31843575 0.16130440 0.00000000)
		(0.33519553 0.17484737 0.00000000)
		(0.35195531 0.18745299 0.00000000)
		(0.36871508 0.19905369 0.00000000)
		(0.38547486 0.20958726 0.00000000)
		(0.40223464 0.21899725 0.00000000)
		(0.41899441 0.22723321 0.00000000)
		(0.43575419 0.23425098 0.00000000)
		(0.45251397 0.24001294 0.00000000)
		(0.46927374 0.24448820 0.00000000)
		(0.48603352 0.24765278 0.00000000)
		(0.50279330 0.24948970 0.00000000)
		(0.51955307 0.24998912 0.00000000)
		(0.53631285 0.24914836 0.00000000)
		(0.55307263 0.24697192 0.00000000)
		(0.56983240 0.24347149 0.00000000)
		(0.58659218 0.23866581 0.00000000)
		(0.60335196 0.23258066 0.00000000)
		(0.62011173 0.22524865 0.00000000)
		(0.63687151 0.21670910 0.00000000)
		(0.65363128 0.20700778 0.00000000)
		(0.67039106 0.19619670 0.00000000)
		(0.68715084 0.18433383 0.00000000)
		(0.70391061 0.17148274 0.00000000)
		(0.72067039 0.15771235 0.00000000)
		(0.73743017 0.14309647 0.00000000)
		(0.75418994 0.12771345 0.00000000)
		(0.77094972 0.11164577 0.00000000)
		(0.78770950 0.09497956 0.00000000)
		(0.80446927 0.07780417 0.00000000)
		(0.82122905 0.06021168 0.00000000)
		(0.83798883 0.04229639 0.00000000)
		(0.85474860 0.02415436 0.00000000)
		(0.87150838 0.00588284 0.00000000)
		(0.88826816 -0.01242023 0.00000000)
		(0.90502793 -0.03065670 0.00000000)
		(0.92178771 -0.04872883 0.00000000)
		(0.93854749 -0.06653973 0.00000000)
		(0.95530726 -0.08399391 0.00000000)
		(0.97206704 -0.10099780 0.00000000)
		(0.98882682 -0.11746025 0.00000000)
		(1.00558659 -0.13329300 0.00000000)
		(1.02234637 -0.14841117 0.00000000)
		(1.03910615 -0.16273372 0.00000000)
		(1.05586592 -0.17618386 0.00000000)
		(1.07262570 -0.18868948 0.00000000)
		(1.08938547 -0.20018356 0.00000000)
		(1.10614525 -0.21060445 0.00000000)
		(1.12290503 -0.21989631 0.00000000)
		(1.13966480 -0.22800932 0.00000000)
		(1.15642458 -0.23489997 0.00000000)
		(1.17318436 -0.24053134 0.00000000)
		(1.18994413 -0.24487324 0.00000000)
		(1.20670391 -0.24790238 0.00000000)
		(1.22346369 -0.24960252 0.00000000)
		(1.24022346 -0.24996456 0.00000000)
		(1.25698324 -0.24898656 0.00000000)
		(1.27374302 -0.24667374 0.00000000)
		(1.29050279 -0.24303853 0.00000000)
		(1.30726257 -0.23810039 0.00000000)
		(1.32402235 -0.23188581 0.00000000)
		(1.34078212 -0.22442810 0.00000000)
		(1.35754190 -0.21576724 0.00000000)
		(1.37430168 -0.20594967 0.00000000)
		(1.39106145 -0.19502801 0.00000000)
		(1.40782123 -0.18306081 0.00000000)
		(1.42458101 -0.17011224 0.00000000)
		(1.44134078 -0.15625170 0.00000000)
		(1.45810056 -0.14155350 0.00000000)
		(1.47486034 -0.12609644 0.00000000)
		(1.49162011 -0.10996339 0.00000000)
		(1.50837989 -0.09324082 0.00000000)
		(1.52513966 -0.07601840 0.00000000)
		(1.54189944 -0.05838845 0.00000000)
		(1.55865922 -0.04044548 0.00000000)
		(1.57541899 -0.02228568 0.00000000)
		(1.59217877 -0.00400641 0.00000000)
		(1.60893855 0.01429434 0.00000000)
		(1.62569832 0.03251846 0.00000000)
		(1.64245810 0.05056825 0.00000000)
		(1.65921788 0.06834694 0.00000000)
		(1.67597765 0.08575923 0.00000000)
		(1.69273743 0.10271177 0.00000000)
		(1.70949721 0.11911367 0.00000000)
		(1.72625698 0.13487701 0.00000000)
		(1.74301676 0.14991729 0.00000000)
		(1.75977654 0.16415386 0.00000000)
		(1.77653631 0.17751041 0.00000000)
		(1.79329609 0.18991534 0.00000000)
		(1.81005587 0.20130215 0.00000000)
		(1.82681564 0.21160978 0.00000000)
		(1.84357542 0.22078298 0.00000000)
		(1.86033520 0.22877257 0.00000000)
		(1.87709497 0.23553573 0.00000000)
		(1.89385475 0.24103619 0.00000000)
		(1.91061453 0.24524447 0.00000000)
		(1.92737430 0.24813800 0.00000000)
		(1.94413408 0.24970128 0.00000000)
		(1.96089385 0.24992592 0.00000000)
		(1.97765363 0.24881072 0.00000000)
		(1.99441341 0.24636166 0.00000000)
		(2.01117318 0.24259187 0.00000000)
		(2.02793296 0.23752155 0.00000000)
		(2.04469274 0.23117789 0.00000000)
		(2.06145251 0.22359490 0.00000000)
		(2.07821229 0.21481323 0.00000000)
		(2.09497207 0.20487995 0.00000000)
		(2.11173184 0.19384832 0.00000000)
		(2.12849162 0.18177749 0.00000000)
		(2.14525140 0.16873215 0.00000000)
		(2.16201117 0.15478224 0.00000000)
		(2.17877095 0.14000256 0.00000000)
		(2.19553073 0.12447233 0.00000000)
		(2.21229050 0.10827481 0.00000000)
		(2.22905028 0.09149683 0.00000000)
		(2.24581006 0.07422834 0.00000000)
		(2.26256983 0.05656192 0.00000000)
		(2.27932961 0.03859228 0.00000000)
		(2.29608939 0.02041574 0.00000000)
		(2.31284916 0.00212975 0.00000000)
		(2.32960894 -0.01616765 0.00000000)
		(2.34636872 -0.03437838 0.00000000)
		(2.36312849 -0.05240481 0.00000000)
		(2.37988827 -0.07015030 0.00000000)
		(2.39664804 -0.08751971 0.00000000)
		(2.41340782 -0.10441994 0.00000000)
		(2.43016760 -0.12076038 0.00000000)
		(2.44692737 -0.13645343 0.00000000)
		(2.46368715 -0.15141495 0.00000000)
		(2.48044693 -0.16556475 0.00000000)
		(2.49720670 -0.17882697 0.00000000)
		(2.51396648 -0.19113050 0.00000000)
		(2.53072626 -0.20240939 0.00000000)
		(2.54748603 -0.21260317 0.00000000)
		(2.56424581 -0.22165720 0.00000000)
		(2.58100559 -0.22952294 0.00000000)
		(2.59776536 -0.23615821 0.00000000)
		(2.61452514 -0.24152745 0.00000000)
		(2.63128492 -0.24560188 0.00000000)
		(2.64804469 -0.24835964 0.00000000)
		(2.66480447 -0.24978596 0.00000000)
		(2.68156425 -0.24987319 0.00000000)
		(2.69832402 -0.24862087 0.00000000)
		(2.71508380 -0.24603569 0.00000000)
		(2.73184358 -0.24213154 0.00000000)
		(2.74860335 -0.23692932 0.00000000)
		(2.76536313 -0.23045695 0.00000000)
		(2.78212291 -0.22274910 0.00000000)
		(2.79888268 -0.21384710 0.00000000)
		(2.81564246 -0.20379869 0.00000000)
		(2.83240223 -0.19265771 0.00000000)
		(2.84916201 -0.18048391 0.00000000)
		(2.86592179 -0.16734255 0.00000000)
		(2.88268156 -0.15330406 0.00000000)
		(2.89944134 -0.13844373 0.00000000)
		(2.91620112 -0.12284120 0.00000000)
		(2.93296089 -0.10658013 0.00000000)
		(2.95166480 -0.09330991 0.00000000)
		(2.97036872 -0.08143657 0.00000000)
		(2.98907263 -0.07096008 0.00000000)
		(3.00777654 -0.06188046 0.00000000)
		(3.02648045 -0.05419771 0.00000000)
		(3.04518436 -0.04791182 0.00000000)
		(3.06388827 -0.04302279 0.00000000)
		(3.08259218 -0.03953063 0.00000000)
		(3.10129609 -0.03743534 0.00000000)
		(3.12000000 -0.03673690 0.00000000)
		(3.14000000 -0.03673690 0.00000000)
		(3.16000000 -0.03673690 0.00000000)
		(3.18000000 -0.03673690 0.00000000)
		(3.20000000 -0.03673690 0.00000000)
		(3.22000000 -0.03673690 0.00000000)
		(3.24000000 -0.03673690 0.00000000)
		(3.26000000 -0.03673690 0.00000000)
		(3.28000000 -0.03673690 0.00000000)
		(3.30000000 -0.03673690 0.00000000)
		(3.32000000 -0.03673690 0.00000000)
		(3.34000000 -0.03673690 0.00000000)
		(3.36000000 -0.03673690 0.00000000)
		(3.38000000 -0.03673690 0.00000000)
		(3.40000000 -0.03673690 0.00000000)
		(3.42000000 -0.03673690 0.00000000)
		(3.44000000 -0.03673690 0.00000000)
		(3.46000000 -0.03673690 0.00000000)
		(3.48000000 -0.03673690 0.00000000)
		(3.50000000 -0.03673690 0.00000000)
		(3.52000000 -0.03673690 0.00000000)
		(3.54000000 -0.03673690 0.00000000)
		(3.56000000 -0.03673690 0.00000000)
		(3.58000000 -0.03673690 0.00000000)
		(3.60000000 -0.03673690 0.00000000)
		(3.62000000 -0.03673690 0.00000000)
		(3.64000000 -0.03673690 0.00000000)
		(3.66000000 -0.03673690 0.00000000)
		(3.68000000 -0.03673690 0.00000000)
		(3.70000000 -0.03673690 0.00000000)
		(3.72000000 -0.03673690 0.00000000)
		(3.74000000 -0.03673690 0.00000000)
		(3.76000000 -0.03673690 0.00000000)
		(3.78000000 -0.03673690 0.00000000)
		(3.80000000 -0.03673690 0.00000000)
		(3.82000000 -0.03673690 0.00000000)
		(3.84000000 -0.03673690 0.00000000)
		(3.86000000 -0.03673690 0.00000000)
		(3.88000000 -0.03673690 0.00000000)
		(3.90000000 -0.03673690 0.00000000)
		(3.92000000 -0.03673690 0.00000000)
		(3.94000000 -0.03673690 0.00000000)
		(3.96000000 -0.03673690 0.00000000)
		(3.98000000 -0.03673690 0.00000000)
		(4.00000000 -0.03673690 0.00000000)
	)
	polyLine 4 5
	(
		(-1.00000000 -0.15916411 0.10000000)
		(-0.98000000 -0.15916411 0.10000000)
		(-0.96000000 -0.15916411 0.10000000)
		(-0.94000000 -0.15916411 0.10000000)
		(-0.92000000 -0.15916411 0.10000000)
		(-0.90000000 -0.15916411 0.10000000)
		(-0.88000000 -0.15916411 0.10000000)
		(-0.86000000 -0.15916411 0.10000000)
		(-0.84000000 -0.15916411 0.10000000)
		(-0.82000000 -0.15916411 0.10000000)
		(-0.80000000 -0.15916411 0.10000000)
		(-0.78000000 -0.15916411 0.10000000)
		(-0.76000000 -0.15916411 0.10000000)
		(-0.74000000 -0.15916411 0.10000000)
		(-0.72000000 -0.15916411 0.10000000)
		(-0.70000000 -0.15916411 0.10000000)
		(-0.68000000 -0.15916411 0.10000000)
		(-0.66000000 -0.15916411 0.10000000)
		(-0.64000000 -0.15916411 0.10000000)
		(-0.62000000 -0.15916411 0.10000000)
		(-0.60000000 -0.15916411 0.10000000)
		(-0.58000000 -0.15916411 0.10000000)
		(-0.56000000 -0.15916411 0.10000000)
		(-0.54000000 -0.15916411 0.10000000)
		(-0.52000000 -0.15916411 0.10000000)
		(-0.50000000 -0.15916411 0.10000000)
		(-0.48000000 -0.15916411 0.10000000)
		(-0.46000000 -0.15916411 0.10000000)
		(-0.44000000 -0.15916411 0.10000000)
		(-0.42000000 -0.15916411 0.10000000)
		(-0.40000000 -0.15916411 0.10000000)
		(-0.38000000 -0.15916411 0.10000000)
		(-0.36000000 -0.15916411 0.10000000)
		(-0.34000000 -0.15916411 0.10000000)
		(-0.32000000 -0.15916411 0.10000000)
		(-0.30000000 -0.15916411 0.10000000)
		(-0.28000000 -0.15916411 0.10000000)
		(-0.26000000 -0.15916411 0.10000000)
		(-0.24000000 -0.15916411 0.10000000)
		(-0.22000000 -0.15916411 0.10000000)
		(-0.20000000 -0.15916411 0.10000000)
		(-0.18000000 -0.15916411 0.10000000)
		(-0.16000000 -0.15916411 0.10000000)
		(-0.14000000 -0.15916411 0.10000000)
		(-0.12000000 -0.15916411 0.10000000)
		(-0.10000000 -0.15916411 0.10000000)
		(-0.08162011 -0.15836832 0.10000000)
		(-0.06324022 -0.15598097 0.10000000)
		(-0.04486034 -0.15200204 0.10000000)
		(-0.02648045 -0.14643154 0.10000000)
		(-0.00810056 -0.13926947 0.10000000)
		(0.01027933 -0.13051583 0.10000000)
		(0.02865922 -0.12017062 0.10000000)
		(0.04703911 -0.10823384 0.10000000)
		(0.06541899 -0.09470549 0.10000000)
		(0.08379888 -0.07958556 0.10000000)
		(0.10055866 -0.06203152 0.10000000)
		(0.11731844 -0.04414493 0.10000000)
		(0.13407821 -0.02602168 0.10000000)
		(0.15083799 -0.00775893 0.10000000)
		(0.16759777 0.01054541 0.10000000)
		(0.18435754 0.02879322 0.10000000)
		(0.20111732 0.04688667 0.10000000)
		(0.21787709 0.06472877 0.10000000)
		(0.23463687 0.08222385 0.10000000)
		(0.25139665 0.09927814 0.10000000)
		(0.26815642 0.11580021 0.10000000)
		(0.28491620 0.13170147 0.10000000)
		(0.30167598 0.14689669 0.10000000)
		(0.31843575 0.16130440 0.10000000)
		(0.33519553 0.17484737 0.10000000)
		(0.35195531 0.18745299 0.10000000)
		(0.36871508 0.19905369 0.10000000)
		(0.38547486 0.20958726 0.10000000)
		(0.40223464 0.21899725 0.10000000)
		(0.41899441 0.22723321 0.10000000)
		(0.43575419 0.23425098 0.10000000)
		(0.45251397 0.24001294 0.10000000)
		(0.46927374 0.24448820 0.10000000)
		(0.48603352 0.24765278 0.10000000)
		(0.50279330 0.24948970 0.10000000)
		(0.51955307 0.24998912 0.10000000)
		(0.53631285 0.24914836 0.10000000)
		(0.55307263 0.24697192 0.10000000)
		(0.56983240 0.24347149 0.10000000)
		(0.58659218 0.23866581 0.10000000)
		(0.60335196 0.23258066 0.10000000)
		(0.62011173 0.22524865 0.10000000)
		(0.63687151 0.21670910 0.10000000)
		(0.65363128 0.20700778 0.10000000)
		(0.67039106 0.19619670 0.10000000)
		(0.68715084 0.18433383 0.10000000)
		(0.70391061 0.17148274 0.10000000)
		(0.72067039 0.15771235 0.10000000)
		(0.73743017 0.14309647 0.10000000)
		(0.75418994 0.12771345 0.10000000)
		(0.77094972 0.11164577 0.10000000)
		(0.78770950 0.09497956 0.10000000)
		(0.80446927 0.07780417 0.10000000)
		(0.82122905 0.06021168 0.10000000)
		(0.83798883 0.04229639 0.10000000)
		(0.85474860 0.02415436 0.10000000)
		(0.87150838 0.00588284 0.10000000)
		(0.88826816 -0.01242023 0.10000000)
		(0.90502793 -0.03065670 0.10000000)
		(0.92178771 -0.04872883 0.10000000)
		(0.93854749 -0.06653973 0.10000000)
		(0.95530726 -0.08399391 0.10000000)
		(0.97206704 -0.10099780 0.10000000)
		(0.98882682 -0.11746025 0.10000000)
		(1.00558659 -0.13329300 0.10000000)
		(1.02234637 -0.14841117 0.10000000)
		(1.03910615 -0.16273372 0.10000000)
		(1.05586592 -0.17618386 0.10000000)
		(1.07262570 -0.18868948 0.10000000)
		(1.08938547 -0.20018356 0.10000000)
		(1.10614525 -0.21060445 0.10000000)
		(1.12290503 -0.21989631 0.10000000)
		(1.13966480 -0.22800932 0.10000000)
		(1.15642458 -0.23489997 0.10000000)
		(1.17318436 -0.24053134 0.10000000)
		(1.18994413 -0.24487324 0.10000000)
		(1.20670391 -0.24790238 0.10000000)
		(1.22346369 -0.24960252 0.10000000)
		(1.24022346 -0.24996456 0.10000000)
		(1.25698324 -0.24898656 0.10000000)
		(1.27374302 -0.24667374 0.10000000)
		(1.29050279 -0.24303853 0.10000000)
		(1.30726257 -0.23810039 0.10000000)
		(1.32402235 -0.23188581 0.10000000)
		(1.34078212 -0.22442810 0.10000000)
		(1.35754190 -0.21576724 0.10000000)
		(1.37430168 -0.20594967 0.10000000)
		(1.39106145 -0.19502801 0.10000000)
		(1.40782123 -0.18306081 0.10000000)
		(1.42458101 -0.17011224 0.10000000)
		(1.44134078 -0.15625170 0.10000000)
		(1.45810056 -0.14155350 0.10000000)
		(1.47486034 -0.12609644 0.10000000)
		(1.49162011 -0.10996339 0.10000000)
		(1.50837989 -0.09324082 0.10000000)
		(1.52513966 -0.07601840 0.10000000)
		(1.54189944 -0.05838845 0.10000000)
		(1.55865922 -0.04044548 0.10000000)
		(1.57541899 -0.02228568 0.10000000)
		(1.59217877 -0.00400641 0.10000000)
		(1.60893855 0.01429434 0.10000000)
		(1.62569832 0.03251846 0.10000000)
		(1.64245810 0.05056825 0.10000000)
		(1.65921788 0.06834694 0.10000000)
		(1.67597765 0.08575923 0.10000000)
		(1.69273743 0.10271177 0.10000000)
		(1.70949721 0.11911367 0.10000000)
		(1.72625698 0.13487701 0.10000000)
		(1.74301676 0.14991729 0.10000000)
		(1.75977654 0.16415386 0.10000000)
		(1.77653631 0.17751041 0.10000000)
		(1.79329609 0.18991534 0.10000000)
		(1.81005587 0.20130215 0.10000000)
		(1.82681564 0.21160978 0.10000000)
		(1.84357542 0.22078298 0.10000000)
		(1.86033520 0.22877257 0.10000000)
		(1.87709497 0.23553573 0.10000000)
		(1.89385475 0.24103619 0.10000000)
		(1.91061453 0.24524447 0.10000000)
		(1.92737430 0.24813800 0.10000000)
		(1.94413408 0.24970128 0.10000000)
		(1.96089385 0.24992592 0.10000000)
		(1.97765363 0.24881072 0.10000000)
		(1.99441341 0.24636166 0.10000000)
		(2.01117318 0.24259187 0.10000000)
		(2.02793296 0.23752155 0.10000000)
		(2.04469274 0.23117789 0.10000000)
		(2.06145251 0.22359490 0.10000000)
		(2.07821229 0.21481323 0.10000000)
		(2.09497207 0.20487995 0.10000000)
		(2.11173184 0.19384832 0.10000000)
		(2.12849162 0.18177749 0.10000000)
		(2.14525140 0.16873215 0.10000000)
		(2.16201117 0.15478224 0.10000000)
		(2.17877095 0.14000256 0.10000000)
		(2.19553073 0.12447233 0.10000000)
		(2.21229050 0.10827481 0.10000000)
		(2.22905028 0.09149683 0.10000000)
		(2.24581006 0.07422834 0.10000000)
		(2.26256983 0.05656192 0.10000000)
		(2.27932961 0.03859228 0.10000000)
		(2.29608939 0.02041574 0.10000000)
		(2.31284916 0.00212975 0.10000000)
		(2.32960894 -0.01616765 0.10000000)
		(2.34636872 -0.03437838 0.10000000)
		(2.36312849 -0.05240481 0.10000000)
		(2.37988827 -0.07015030 0.10000000)
		(2.39664804 -0.08751971 0.10000000)
		(2.41340782 -0.10441994 0.10000000)
		(2.43016760 -0.12076038 0.10000000)
		(2.44692737 -0.13645343 0.10000000)
		(2.46368715 -0.15141495 0.10000000)
		(2.48044693 -0.16556475 0.10000000)
		(2.49720670 -0.17882697 0.10000000)
		(2.51396648 -0.19113050 0.10000000)
		(2.53072626 -0.20240939 0.10000000)
		(2.54748603 -0.21260317 0.10000000)
		(2.56424581 -0.22165720 0.10000000)
		(2.58100559 -0.22952294 0.10000000)
		(2.59776536 -0.23615821 0.10000000)
		(2.61452514 -0.24152745 0.10000000)
		(2.63128492 -0.24560188 0.10000000)
		(2.64804469 -0.24835964 0.10000000)
		(2.66480447 -0.24978596 0.10000000)
		(2.68156425 -0.24987319 0.10000000)
		(2.69832402 -0.24862087 0.10000000)
		(2.71508380 -0.24603569 0.10000000)
		(2.73184358 -0.24213154 0.10000000)
		(2.74860335 -0.23692932 0.10000000)
		(2.76536313 -0.23045695 0.10000000)
		(2.78212291 -0.22274910 0.10000000)
		(2.79888268 -0.21384710 0.10000000)
		(2.81564246 -0.20379869 0.10000000)
		(2.83240223 -0.19265771 0.10000000)
		(2.84916201 -0.18048391 0.10000000)
		(2.86592179 -0.16734255 0.10000000)
		(2.88268156 -0.15330406 0.10000000)
		(2.89944134 -0.13844373 0.10000000)
		(2.91620112 -0.12284120 0.10000000)
		(2.93296089 -0.10658013 0.10000000)
		(2.95166480 -0.09330991 0.10000000)
		(2.97036872 -0.08143657 0.10000000)
		(2.98907263 -0.07096008 0.10000000)
		(3.00777654 -0.06188046 0.10000000)
		(3.02648045 -0.05419771 0.10000000)
		(3.04518436 -0.04791182 0.10000000)
		(3.06388827 -0.04302279 0.10000000)
		(3.08259218 -0.03953063 0.10000000)
		(3.10129609 -0.03743534 0.10000000)
		(3.12000000 -0.03673690 0.10000000)
		(3.14000000 -0.03673690 0.10000000)
		(3.16000000 -0.03673690 0.10000000)
		(3.18000000 -0.03673690 0.10000000)
		(3.20000000 -0.03673690 0.10000000)
		(3.22000000 -0.03673690 0.10000000)
		(3.24000000 -0.03673690 0.10000000)
		(3.26000000 -0.03673690 0.10000000)
		(3.28000000 -0.03673690 0.10000000)
		(3.30000000 -0.03673690 0.10000000)
		(3.32000000 -0.03673690 0.10000000)
		(3.34000000 -0.03673690 0.10000000)
		(3.36000000 -0.03673690 0.10000000)
		(3.38000000 -0.03673690 0.10000000)
		(3.40000000 -0.03673690 0.10000000)
		(3.42000000 -0.03673690 0.10000000)
		(3.44000000 -0.03673690 0.10000000)
		(3.46000000 -0.03673690 0.10000000)
		(3.48000000 -0.03673690 0.10000000)
		(3.50000000 -0.03673690 0.10000000)
		(3.52000000 -0.03673690 0.10000000)
		(3.54000000 -0.03673690 0.10000000)
		(3.56000000 -0.03673690 0.10000000)
		(3.58000000 -0.03673690 0.10000000)
		(3.60000000 -0.03673690 0.10000000)
		(3.62000000 -0.03673690 0.10000000)
		(3.64000000 -0.03673690 0.10000000)
		(3.66000000 -0.03673690 0.10000000)
		(3.68000000 -0.03673690 0.10000000)
		(3.70000000 -0.03673690 0.10000000)
		(3.72000000 -0.03673690 0.10000000)
		(3.74000000 -0.03673690 0.10000000)
		(3.76000000 -0.03673690 0.10000000)
		(3.78000000 -0.03673690 0.10000000)
		(3.80000000 -0.03673690 0.10000000)
		(3.82000000 -0.03673690 0.10000000)
		(3.84000000 -0.03673690 0.10000000)
		(3.86000000 -0.03673690 0.10000000)
		(3.88000000 -0.03673690 0.10000000)
		(3.90000000 -0.03673690 0.10000000)
		(3.92000000 -0.03673690 0.10000000)
		(3.94000000 -0.03673690 0.10000000)
		(3.96000000 -0.03673690 0.10000000)
		(3.98000000 -0.03673690 0.10000000)
		(4.00000000 -0.03673690 0.10000000)
	)
	polyLine 3 2
	(
		(-1.00000000 0.34083589 0.00000000)
		(-0.98000000 0.34065399 0.00000000)
		(-0.96000000 0.34047208 0.00000000)
		(-0.94000000 0.34029018 0.00000000)
		(-0.92000000 0.34010828 0.00000000)
		(-0.90000000 0.33992638 0.00000000)
		(-0.88000000 0.33974447 0.00000000)
		(-0.86000000 0.33956257 0.00000000)
		(-0.84000000 0.33938067 0.00000000)
		(-0.82000000 0.33919876 0.00000000)
		(-0.80000000 0.33901686 0.00000000)
		(-0.78000000 0.33883496 0.00000000)
		(-0.76000000 0.33865306 0.00000000)
		(-0.74000000 0.33847115 0.00000000)
		(-0.72000000 0.33828925 0.00000000)
		(-0.70000000 0.33810735 0.00000000)
		(-0.68000000 0.33792545 0.00000000)
		(-0.66000000 0.33774354 0.00000000)
		(-0.64000000 0.33756164 0.00000000)
		(-0.62000000 0.33737974 0.00000000)
		(-0.60000000 0.33719783 0.00000000)
		(-0.58000000 0.33701593 0.00000000)
		(-0.56000000 0.33683403 0.00000000)
		(-0.54000000 0.33665213 0.00000000)
		(-0.52000000 0.33647022 0.00000000)
		(-0.50000000 0.33628832 0.00000000)
		(-0.48000000 0.33610642 0.00000000)
		(-0.46000000 0.33592451 0.00000000)
		(-0.44000000 0.33574261 0.00000000)
		(-0.42000000 0.33556071 0.00000000)
		(-0.40000000 0.33537881 0.00000000)
		(-0.38000000 0.33519690 0.00000000)
		(-0.36000000 0.33501500 0.00000000)
		(-0.34000000 0.33483310 0.00000000)
		(-0.32000000 0.33465119 0.00000000)
		(-0.30000000 0.33446929 0.00000000)
		(-0.28000000 0.33428739 0.00000000)
		(-0.26000000 0.33410549 0.00000000)
		(-0.24000000 0.33392358 0.00000000)
		(-0.22000000 0.33374168 0.00000000)
		(-0.20000000 0.33355978 0.00000000)
		(-0.18000000 0.33337788 0.00000000)
		(-0.16000000 0.33319597 0.00000000)
		(-0.14000000 0.33301407 0.00000000)
		(-0.12000000 0.33283217 0.00000000)
		(-0.10000000 0.33265026 0.00000000)
		(-0.08162011 0.33196050 0.00000000)
		(-0.06324022 0.33327530 0.00000000)
		(-0.04486034 0.33659465 0.00000000)
		(-0.02648045 0.34191855 0.00000000)
		(-0.00810056 0.34924701 0.00000000)
		(0.01027933 0.35858003 0.00000000)
		(0.02865922 0.36991759 0.00000000)
		(0.04703911 0.38325972 0.00000000)
		(0.06541899 0.39860639 0.00000000)
		(0.08379888 0.41595762 0.00000000)
		(0.10055866 0.43449470 0.00000000)
		(0.11731844 0.45338294 0.00000000)
		(0.13407821 0.47252110 0.00000000)
		(0.15083799 0.49180656 0.00000000)
		(0.16759777 0.51113596 0.00000000)
		(0.18435754 0.53040565 0.00000000)
		(0.20111732 0.54951234 0.00000000)
		(0.21787709 0.56835360 0.00000000)
		(0.23463687 0.58682841 0.00000000)
		(0.25139665 0.60483775 0.00000000)
		(0.26815642 0.62228505 0.00000000)
		(0.28491620 0.63907679 0.00000000)
		(0.30167598 0.65512295 0.00000000)
		(0.31843575 0.67033750 0.00000000)
		(0.33519553 0.68463888 0.00000000)
		(0.35195531 0.69795041 0.00000000)
		(0.36871508 0.71020075 0.00000000)
		(0.38547486 0.72132421 0.00000000)
		(0.40223464 0.73126116 0.00000000)
		(0.41899441 0.73995833 0.00000000)
		(0.43575419 0.74736910 0.00000000)
		(0.45251397 0.75345373 0.00000000)
		(0.46927374 0.75817961 0.00000000)
		(0.48603352 0.76152141 0.00000000)
		(0.50279330 0.76346120 0.00000000)
		(0.51955307 0.76398858 0.00000000)
		(0.53631285 0.76310074 0.00000000)
		(0.55307263 0.76080242 0.00000000)
		(0.56983240 0.75710596 0.00000000)
		(0.58659218 0.75203117 0.00000000)
		(0.60335196 0.74560524 0.00000000)
		(0.62011173 0.73786264 0.00000000)
		(0.63687151 0.72884487 0.00000000)
		(0.65363128 0.71860028 0.00000000)
		(0.67039106 0.70718378 0.00000000)
		(0.68715084 0.69465657 0.00000000)
		(0.70391061 0.68108583 0.00000000)
		(0.72067039 0.66654429 0.00000000)
		(0.73743017 0.65110991 0.00000000)
		(0.75418994 0.63486544 0.00000000)
		(0.77094972 0.61789797 0.00000000)
		(0.78770950 0.60029845 0.00000000)
		(0.80446927 0.58216123 0.00000000)
		(0.82122905 0.56358355 0.00000000)
		(0.83798883 0.54466501 0.00000000)
		(0.85474860 0.52550701 0.00000000)
		(0.87150838 0.50621228 0.00000000)
		(0.88826816 0.48688424 0.00000000)
		(0.90502793 0.46762651 0.00000000)
		(0.92178771 0.44854234 0.00000000)
		(0.93854749 0.42973403 0.00000000)
		(0.95530726 0.41130241 0.00000000)
		(0.97206704 0.39334629 0.00000000)
		(0.98882682 0.37596194 0.00000000)
		(1.00558659 0.35924255 0.00000000)
		(1.02234637 0.34327776 0.00000000)
		(1.03910615 0.32815315 0.00000000)
		(1.05586592 0.31394979 0.00000000)
		(1.07262570 0.30074385 0.00000000)
		(1.08938547 0.28860611 0.00000000)
		(1.10614525 0.27760164 0.00000000)
		(1.12290503 0.26778943 0.00000000)
		(1.13966480 0.25922210 0.00000000)
		(1.15642458 0.25194556 0.00000000)
		(1.17318436 0.24599883 0.00000000)
		(1.18994413 0.24141379 0.00000000)
		(1.20670391 0.23821502 0.00000000)
		(1.22346369 0.23641966 0.00000000)
		(1.24022346 0.23603735 0.00000000)
		(1.25698324 0.23707012 0.00000000)
		(1.27374302 0.23951245 0.00000000)
		(1.29050279 0.24335125 0.00000000)
		(1.30726257 0.24856592 0.00000000)
		(1.32402235 0.25512852 0.00000000)
		(1.34078212 0.26300386 0.00000000)
		(1.35754190 0.27214973 0.00000000)
		(1.37430168 0.28251709 0.00000000)
		(1.39106145 0.29405036 0.00000000)
		(1.40782123 0.30668773 0.00000000)
		(1.42458101 0.32036143 0.00000000)
		(1.44134078 0.33499816 0.00000000)
		(1.45810056 0.35051946 0.00000000)
		(1.47486034 0.36684212 0.00000000)
		(1.49162011 0.38387863 0.00000000)
		(1.50837989 0.40153766 0.00000000)
		(1.52513966 0.41972455 0.00000000)
		(1.54189944 0.43834178 0.00000000)
		(1.55865922 0.45728957 0.00000000)
		(1.57541899 0.47646632 0.00000000)
		(1.59217877 0.49576923 0.00000000)
		(1.60893855 0.51509483 0.00000000)
		(1.62569832 0.53433950 0.00000000)
		(1.64245810 0.55340008 0.00000000)
		(1.65921788 0.57217439 0.00000000)
		(1.67597765 0.59056177 0.00000000)
		(1.69273743 0.60846365 0.00000000)
		(1.70949721 0.62578407 0.00000000)
		(1.72625698 0.64243017 0.00000000)
		(1.74301676 0.65831270 0.00000000)
		(1.75977654 0.67334653 0.00000000)
		(1.77653631 0.68745105 0.00000000)
		(1.79329609 0.70055066 0.00000000)
		(1.81005587 0.71257512 0.00000000)
		(1.82681564 0.72345999 0.00000000)
		(1.84357542 0.73314689 0.00000000)
		(1.86033520 0.74158390 0.00000000)
		(1.87709497 0.74872580 0.00000000)
		(1.89385475 0.75453429 0.00000000)
		(1.91061453 0.75897823 0.00000000)
		(1.92737430 0.76203380 0.00000000)
		(1.94413408 0.76368462 0.00000000)
		(1.96089385 0.76392185 0.00000000)
		(1.97765363 0.76274419 0.00000000)
		(1.99441341 0.76015799 0.00000000)
		(2.01117318 0.75617708 0.00000000)
		(2.02793296 0.75082283 0.00000000)
		(2.04469274 0.74412392 0.00000000)
		(2.06145251 0.73611628 0.00000000)
		(2.07821229 0.72684283 0.00000000)
		(2.09497207 0.71635329 0.00000000)
		(2.11173184 0.70470389 0.00000000)
		(2.12849162 0.69195708 0.00000000)
		(2.14525140 0.67818120 0.00000000)
		(2.16201117 0.66345009 0.00000000)
		(2.17877095 0.64784274 0.00000000)
		(2.19553073 0.63144282 0.00000000)
		(2.21229050 0.61433823 0.00000000)
		(2.22905028 0.59662068 0.00000000)
		(2.24581006 0.57838515 0.00000000)
		(2.26256983 0.55972941 0.00000000)
		(2.27932961 0.54075346 0.00000000)
		(2.29608939 0.52155903 0.00000000)
		(2.31284916 0.50224902 0.00000000)
		(2.32960894 0.48292696 0.00000000)
		(2.34636872 0.46369642 0.00000000)
		(2.36312849 0.44466051 0.00000000)
		(2.37988827 0.42592126 0.00000000)
		(2.39664804 0.40757916 0.00000000)
		(2.41340782 0.38973251 0.00000000)
		(2.43016760 0.37247700 0.00000000)
		(2.44692737 0.35590514 0.00000000)
		(2.46368715 0.34010576 0.00000000)