/*--------------------------------*- C++ -*----------------------------------*\\
/*--------------------------------*- C++ -*----------------------------------*\\
| =========                 |                                                 |
| \\\\      /  F ield         | OpenFOAM: The Open Source CFD Toolbox           |
|  \\\\    /   O peration     | Version:  v2012                                 |
|   \\\\  /    A nd           | Website:  www.openfoam.com                      |
|    \\\\/     M anipulation  |                                                 |
\\*---------------------------------------------------------------------------*/
FoamFile
{
    version     2.0;
    format      ascii;
    class       dictionary;
    object      blockMeshDict;
}
// * * * * * * * * * * * * * * * * * * * * * * * * * * * * * * * * * * * * * //

scale   0.01;

xmin -1;
xmax 5;
ymin 0;
ymax 0.5;
zmin 0;
zmax 0.1;

vertices
(
    (-1.00000000 0.23574401 0.00000000)
    (4.00000000 -0.04579598 0.00000000)
    (4.00000000 0.45420402 0.00000000)
    (-1.00000000 0.73574401 0.00000000)
    (-1.00000000 0.23574401 0.10000000)
    (4.00000000 -0.04579598 0.10000000)
    (4.00000000 0.45420402 0.10000000)
    (-1.00000000 0.73574401 0.10000000)
);

blocks
(
    hex (0 1 2 3 4 5 6 7) (200 20 1) simpleGrading (1 1 1)
);

edges
(
	polyLine 0 1
	(
		(-1.00000000 0.23574401 0.00000000)
		(-0.98000000 0.23574401 0.00000000)
		(-0.96000000 0.23574401 0.00000000)
		(-0.94000000 0.23574401 0.00000000)
		(-0.92000000 0.23574401 0.00000000)
		(-0.90000000 0.23574401 0.00000000)
		(-0.88000000 0.23574401 0.00000000)
		(-0.86000000 0.23574401 0.00000000)
		(-0.84000000 0.23574401 0.00000000)
		(-0.82000000 0.23574401 0.00000000)
		(-0.80000000 0.23574401 0.00000000)
		(-0.78000000 0.23574401 0.00000000)
		(-0.76000000 0.23574401 0.00000000)
		(-0.74000000 0.23574401 0.00000000)
		(-0.72000000 0.23574401 0.00000000)
		(-0.70000000 0.23574401 0.00000000)
		(-0.68000000 0.23574401 0.00000000)
		(-0.66000000 0.23574401 0.00000000)
		(-0.64000000 0.23574401 0.00000000)
		(-0.62000000 0.23574401 0.00000000)
		(-0.60000000 0.23574401 0.00000000)
		(-0.58000000 0.23574401 0.00000000)
		(-0.56000000 0.23574401 0.00000000)
		(-0.54000000 0.23574401 0.00000000)
		(-0.52000000 0.23574401 0.00000000)
		(-0.50000000 0.23574401 0.00000000)
		(-0.48000000 0.23574401 0.00000000)
		(-0.46000000 0.23574401 0.00000000)
		(-0.44000000 0.23574401 0.00000000)
		(-0.42000000 0.23574401 0.00000000)
		(-0.40000000 0.23574401 0.00000000)
		(-0.38000000 0.23574401 0.00000000)
		(-0.36000000 0.23574401 0.00000000)
		(-0.34000000 0.23574401 0.00000000)
		(-0.32000000 0.23574401 0.00000000)
		(-0.30000000 0.23574401 0.00000000)
		(-0.28000000 0.23574401 0.00000000)
		(-0.26000000 0.23574401 0.00000000)
		(-0.24000000 0.23574401 0.00000000)
		(-0.22000000 0.23574401 0.00000000)
		(-0.20000000 0.23574401 0.00000000)
		(-0.18000000 0.23574401 0.00000000)
		(-0.16000000 0.23574401 0.00000000)
		(-0.14000000 0.23574401 0.00000000)
		(-0.12000000 0.23574401 0.00000000)
		(-0.10000000 0.23574401 0.00000000)
		(-0.08162011 0.23511509 0.00000000)
		(-0.06324022 0.23322835 0.00000000)
		(-0.04486034 0.23008377 0.00000000)
		(-0.02648045 0.22568136 0.00000000)
		(-0.00810056 0.22002111 0.00000000)
		(0.01027933 0.21310304 0.00000000)
		(0.02865922 0.20492713 0.00000000)
		(0.04703911 0.19549339 0.00000000)
		(0.06541899 0.18480182 0.00000000)
		(0.08379888 0.17285242 0.00000000)
		(0.10055866 0.15521396 0.00000000)
		(0.11731844 0.13621654 0.00000000)
		(0.13407821 0.11602649 0.00000000)
		(0.15083799 0.09482058 0.00000000)
		(0.16759777 0.07278449 0.00000000)
		(0.18435754 0.05011113 0.00000000)
		(0.20111732 0.02699903 0.00000000)
		(0.21787709 0.00365054 0.00000000)
		(0.23463687 -0.01972991 0.00000000)
		(0.25139665 -0.04293761 0.00000000)
		(0.26815642 -0.06576938 0.00000000)
		(0.28491620 -0.08802532 0.00000000)
		(0.30167598 -0.10951055 0.00000000)
		(0.31843575 -0.13003698 0.00000000)
		(0.33519553 -0.14942488 0.00000000)
		(0.35195531 -0.16750451 0.00000000)
		(0.36871508 -0.18411756 0.00000000)
		(0.38547486 -0.19911860 0.00000000)
		(0.40223464 -0.21237627 0.00000000)
		(0.41899441 -0.22377450 0.00000000)
		(0.43575419 -0.23321349 0.00000000)
		(0.45251397 -0.24061061 0.00000000)
		(0.46927374 -0.24590109 0.00000000)
		(0.48603352 -0.24903860 0.00000000)
		(0.50279330 -0.24999568 0.00000000)
		(0.51955307 -0.24876395 0.00000000)
		(0.53631285 -0.24535419 0.00000000)
		(0.55307263 -0.23979626 0.00000000)
		(0.56983240 -0.23213881 0.00000000)
		(0.58659218 -0.22244889 0.00000000)
		(0.60335196 -0.21081135 0.00000000)
		(0.62011173 -0.19732807 0.00000000)
		(0.63687151 -0.18211710 0.00000000)
		(0.65363128 -0.16531162 0.00000000)
		(0.67039106 -0.14705878 0.00000000)
		(0.68715084 -0.12751837 0.00000000)
		(0.70391061 -0.10686149 0.00000000)
		(0.72067039 -0.08526900 0.00000000)
		(0.73743017 -0.06292994 0.00000000)
		(0.75418994 -0.04003990 0.00000000)
		(0.77094972 -0.01679930 0.00000000)
		(0.78770950 0.00658838 0.00000000)
		(0.80446927 0.02991839 0.00000000)
		(0.82122905 0.05298644 0.00000000)
		(0.83798883 0.07559058 0.00000000)
		(0.85474860 0.09753289 0.00000000)
		(0.87150838 0.11862126 0.00000000)
		(0.88826816 0.13867105 0.00000000)
		(0.90502793 0.15750673 0.00000000)
		(0.92178771 0.17496337 0.00000000)
		(0.93854749 0.19088813 0.00000000)
		(0.95530726 0.20514160 0.00000000)
		(0.97206704 0.21759896 0.00000000)
		(0.98882682 0.22815116 0.00000000)
		(1.00558659 0.23670581 0.00000000)
		(1.02234637 0.24318800 0.00000000)
		(1.03910615 0.24754098 0.00000000)
		(1.05586592 0.24972664 0.00000000)
		(1.07262570 0.24972585 0.00000000)
		(1.08938547 0.24753860 0.00000000)
		(1.10614525 0.24318406 0.00000000)
		(1.12290503 0.23670034 0.00000000)
		(1.13966480 0.22814421 0.00000000)
		(1.15642458 0.21759059 0.00000000)
		(1.17318436 0.20513188 0.00000000)
		(1.18994413 0.19087716 0.00000000)
		(1.20670391 0.17495123 0.00000000)
		(1.22346369 0.15749353 0.00000000)
		(1.24022346 0.13865691 0.00000000)
		(1.25698324 0.11860630 0.00000000)
		(1.27374302 0.09751724 0.00000000)
		(1.29050279 0.07557438 0.00000000)
		(1.30726257 0.05296983 0.00000000)
		(1.32402235 0.02990151 0.00000000)
		(1.34078212 0.00657139 0.00000000)
		(1.35754190 -0.01681626 0.00000000)
		(1.37430168 -0.04005668 0.00000000)
		(1.39106145 -0.06294639 0.00000000)
		(1.40782123 -0.08528497 0.00000000)
		(1.42458101 -0.10687686 0.00000000)
		(1.44134078 -0.12753299 0.00000000)
		(1.45810056 -0.14707252 0.00000000)
		(1.47486034 -0.16532437 0.00000000)
		(1.49162011 -0.18212874 0.00000000)
		(1.50837989 -0.19733850 0.00000000)
		(1.52513966 -0.21082049 0.00000000)
		(1.54189944 -0.22245665 0.00000000)
		(1.55865922 -0.23214512 0.00000000)
		(1.57541899 -0.23980106 0.00000000)
		(1.59217877 -0.24535745 0.00000000)
		(1.60893855 -0.24876564 0.00000000)
		(1.62569832 -0.24999578 0.00000000)
		(1.64245810 -0.24903711 0.00000000)
		(1.65921788 -0.24589802 0.00000000)
		(1.67597765 -0.24060600 0.00000000)
		(1.69273743 -0.23320737 0.00000000)
		(1.70949721 -0.22376692 0.00000000)
		(1.72625698 -0.21236730 0.00000000)
		(1.74301676 -0.19910832 0.00000000)
		(1.75977654 -0.18410606 0.00000000)
		(1.77653631 -0.16749189 0.00000000)
		(1.79329609 -0.14941125 0.00000000)
		(1.81005587 -0.13002246 0.00000000)
		(1.82681564 -0.10949527 0.00000000)
		(1.84357542 -0.08800941 0.00000000)
		(1.86033520 -0.06575299 0.00000000)
		(1.87709497 -0.04292087 0.00000000)
		(1.89385475 -0.01971296 0.00000000)
		(1.91061453 0.00366754 0.00000000)
		(1.92737430 0.02701593 0.00000000)
		(1.94413408 0.05012778 0.00000000)
		(1.96089385 0.07280075 0.00000000)
		(1.97765363 0.09483631 0.00000000)
		(1.99441341 0.11604155 0.00000000)
		(2.01117318 0.13623079 0.00000000)
		(2.02793296 0.15522728 0.00000000)
		(2.04469274 0.17286470 0.00000000)
		(2.06145251 0.18898861 0.00000000)
		(2.07821229 0.20345785 0.00000000)
		(2.09497207 0.21614574 0.00000000)
		(2.11173184 0.22694118 0.00000000)
		(2.12849162 0.23574967 0.00000000)
		(2.14525140 0.24249407 0.00000000)
		(2.16201117 0.24711534 0.00000000)
		(2.17877095 0.24957301 0.00000000)
		(2.19553073 0.24984557 0.00000000)
		(2.21229050 0.24793064 0.00000000)
		(2.22905028 0.24384497 0.00000000)
		(2.24581006 0.23762434 0.00000000)
		(2.26256983 0.22932322 0.00000000)
		(2.27932961 0.21901427 0.00000000)
		(2.29608939 0.20678778 0.00000000)
		(2.31284916 0.19275077 0.00000000)
		(2.32960894 0.17702615 0.00000000)
		(2.34636872 0.15975159 0.00000000)
		(2.36312849 0.14107835 0.00000000)
		(2.37988827 0.12116991 0.00000000)
		(2.39664804 0.10020058 0.00000000)
		(2.41340782 0.07835395 0.00000000)
		(2.43016760 0.05582130 0.00000000)
		(2.44692737 0.03279991 0.00000000)
		(2.46368715 0.00949135 0.00000000)
		(2.48044693 -0.01390031 0.00000000)
		(2.49720670 -0.03717028 0.00000000)
		(2.51396648 -0.06011479 0.00000000)
		(2.53072626 -0.08253299 0.00000000)
		(2.54748603 -0.10422857 0.00000000)
		(2.56424581 -0.12501159 0.00000000)
		(2.58100559 -0.14470008 0.00000000)
		(2.59776536 -0.16312166 0.00000000)
		(2.61452514 -0.18011505 0.00000000)
		(2.63128492 -0.19553146 0.00000000)
		(2.64804469 -0.20923591 0.00000000)
		(2.66480447 -0.22110842 0.00000000)
		(2.68156425 -0.23104504 0.00000000)
		(2.69832402 -0.23895876 0.00000000)
		(2.71508380 -0.24478031 0.00000000)
		(2.73184358 -0.24845870 0.00000000)
		(2.74860335 -0.24996174 0.00000000)
		(2.76536313 -0.24927627 0.00000000)
		(2.78212291 -0.24640828 0.00000000)
		(2.79888268 -0.24138288 0.00000000)
		(2.81564246 -0.23424409 0.00000000)
		(2.83240223 -0.22505439 0.00000000)
		(2.84916201 -0.21389425 0.00000000)
		(2.86592179 -0.20086138 0.00000000)
		(2.88268156 -0.18606989 0.00000000)
		(2.89944134 -0.16964928 0.00000000)
		(2.91620112 -0.15174333 0.00000000)
		(2.93296089 -0.13250880 0.00000000)
		(2.95166480 -0.11603336 0.00000000)
		(2.97036872 -0.10129218 0.00000000)
		(2.98907263 -0.08828526 0.00000000)
		(3.00777654 -0.07701259 0.00000000)
		(3.02648045 -0.06747418 0.00000000)
		(3.04518436 -0.05967003 0.00000000)
		(3.06388827 -0.05360013 0.00000000)
		(3.08259218 -0.04926449 0.00000000)
		(3.10129609 -0.04666310 0.00000000)
		(3.12000000 -0.04579598 0.00000000)
		(3.14000000 -0.04579598 0.00000000)
		(3.16000000 -0.04579598 0.00000000)
		(3.18000000 -0.04579598 0.00000000)
		(3.20000000 -0.04579598 0.00000000)
		(3.22000000 -0.04579598 0.00000000)
		(3.24000000 -0.04579598 0.00000000)
		(3.26000000 -0.04579598 0.00000000)
		(3.28000000 -0.04579598 0.00000000)
		(3.30000000 -0.04579598 0.00000000)
		(3.32000000 -0.04579598 0.00000000)
		(3.34000000 -0.04579598 0.00000000)
		(3.36000000 -0.04579598 0.00000000)
		(3.38000000 -0.04579598 0.00000000)
		(3.40000000 -0.04579598 0.00000000)
		(3.42000000 -0.04579598 0.00000000)
		(3.44000000 -0.04579598 0.00000000)
		(3.46000000 -0.04579598 0.00000000)
		(3.48000000 -0.04579598 0.00000000)
		(3.50000000 -0.04579598 0.00000000)
		(3.52000000 -0.04579598 0.00000000)
		(3.54000000 -0.04579598 0.00000000)
		(3.56000000 -0.04579598 0.00000000)
		(3.58000000 -0.04579598 0.00000000)
		(3.60000000 -0.04579598 0.00000000)
		(3.62000000 -0.04579598 0.00000000)
		(3.64000000 -0.04579598 0.00000000)
		(3.66000000 -0.04579598 0.00000000)
		(3.68000000 -0.04579598 0.00000000)
		(3.70000000 -0.04579598 0.00000000)
		(3.72000000 -0.04579598 0.00000000)
		(3.74000000 -0.04579598 0.00000000)
		(3.76000000 -0.04579598 0.00000000)
		(3.78000000 -0.04579598 0.00000000)
		(3.80000000 -0.04579598 0.00000000)
		(3.82000000 -0.04579598 0.00000000)
		(3.84000000 -0.04579598 0.00000000)
		(3.86000000 -0.04579598 0.00000000)
		(3.88000000 -0.04579598 0.00000000)
		(3.90000000 -0.04579598 0.00000000)
		(3.92000000 -0.04579598 0.00000000)
		(3.94000000 -0.04579598 0.00000000)
		(3.96000000 -0.04579598 0.00000000)
		(3.98000000 -0.04579598 0.00000000)
		(4.00000000 -0.04579598 0.00000000)
	)
	polyLine 4 5
	(
		(-1.00000000 0.23574401 0.10000000)
		(-0.98000000 0.23574401 0.10000000)
		(-0.96000000 0.23574401 0.10000000)
		(-0.94000000 0.23574401 0.10000000)
		(-0.92000000 0.23574401 0.10000000)
		(-0.90000000 0.23574401 0.10000000)
		(-0.88000000 0.23574401 0.10000000)
		(-0.86000000 0.23574401 0.10000000)
		(-0.84000000 0.23574401 0.10000000)
		(-0.82000000 0.23574401 0.10000000)
		(-0.80000000 0.23574401 0.10000000)
		(-0.78000000 0.23574401 0.10000000)
		(-0.76000000 0.23574401 0.10000000)
		(-0.74000000 0.23574401 0.10000000)
		(-0.72000000 0.23574401 0.10000000)
		(-0.70000000 0.23574401 0.10000000)
		(-0.68000000 0.23574401 0.10000000)
		(-0.66000000 0.23574401 0.10000000)
		(-0.64000000 0.23574401 0.10000000)
		(-0.62000000 0.23574401 0.10000000)
		(-0.60000000 0.23574401 0.10000000)
		(-0.58000000 0.23574401 0.10000000)
		(-0.56000000 0.23574401 0.10000000)
		(-0.54000000 0.23574401 0.10000000)
		(-0.52000000 0.23574401 0.10000000)
		(-0.50000000 0.23574401 0.10000000)
		(-0.48000000 0.23574401 0.10000000)
		(-0.46000000 0.23574401 0.10000000)
		(-0.44000000 0.23574401 0.10000000)
		(-0.42000000 0.23574401 0.10000000)
		(-0.40000000 0.23574401 0.10000000)
		(-0.38000000 0.23574401 0.10000000)
		(-0.36000000 0.23574401 0.10000000)
		(-0.34000000 0.23574401 0.10000000)
		(-0.32000000 0.23574401 0.10000000)
		(-0.30000000 0.23574401 0.10000000)
		(-0.28000000 0.23574401 0.10000000)
		(-0.26000000 0.23574401 0.10000000)
		(-0.24000000 0.23574401 0.10000000)
		(-0.22000000 0.23574401 0.10000000)
		(-0.20000000 0.23574401 0.10000000)
		(-0.18000000 0.23574401 0.10000000)
		(-0.16000000 0.23574401 0.10000000)
		(-0.14000000 0.23574401 0.10000000)
		(-0.12000000 0.23574401 0.10000000)
		(-0.10000000 0.23574401 0.10000000)
		(-0.08162011 0.23511509 0.10000000)
		(-0.06324022 0.23322835 0.10000000)
		(-0.04486034 0.23008377 0.10000000)
		(-0.02648045 0.22568136 0.10000000)
		(-0.00810056 0.22002111 0.10000000)
		(0.01027933 0.21310304 0.10000000)
		(0.02865922 0.20492713 0.10000000)
		(0.04703911 0.19549339 0.10000000)
		(0.06541899 0.18480182 0.10000000)
		(0.08379888 0.17285242 0.10000000)
		(0.10055866 0.15521396 0.10000000)
		(0.11731844 0.13621654 0.10000000)
		(0.13407821 0.11602649 0.10000000)
		(0.15083799 0.09482058 0.10000000)
		(0.16759777 0.07278449 0.10000000)
		(0.18435754 0.05011113 0.10000000)
		(0.20111732 0.02699903 0.10000000)
		(0.21787709 0.00365054 0.10000000)
		(0.23463687 -0.01972991 0.10000000)
		(0.25139665 -0.04293761 0.10000000)
		(0.26815642 -0.06576938 0.10000000)
		(0.28491620 -0.08802532 0.10000000)
		(0.30167598 -0.10951055 0.10000000)
		(0.31843575 -0.13003698 0.10000000)
		(0.33519553 -0.14942488 0.10000000)
		(0.35195531 -0.16750451 0.10000000)
		(0.36871508 -0.18411756 0.10000000)
		(0.38547486 -0.19911860 0.10000000)
		(0.40223464 -0.21237627 0.10000000)
		(0.41899441 -0.22377450 0.10000000)
		(0.43575419 -0.23321349 0.10000000)
		(0.45251397 -0.24061061 0.10000000)
		(0.46927374 -0.24590109 0.10000000)
		(0.48603352 -0.24903860 0.10000000)
		(0.50279330 -0.24999568 0.10000000)
		(0.51955307 -0.24876395 0.10000000)
		(0.53631285 -0.24535419 0.10000000)
		(0.55307263 -0.23979626 0.10000000)
		(0.56983240 -0.23213881 0.10000000)
		(0.58659218 -0.22244889 0.10000000)
		(0.60335196 -0.21081135 0.10000000)
		(0.62011173 -0.19732807 0.10000000)
		(0.63687151 -0.18211710 0.10000000)
		(0.65363128 -0.16531162 0.10000000)
		(0.67039106 -0.14705878 0.10000000)
		(0.68715084 -0.12751837 0.10000000)
		(0.70391061 -0.10686149 0.10000000)
		(0.72067039 -0.08526900 0.10000000)
		(0.73743017 -0.06292994 0.10000000)
		(0.75418994 -0.04003990 0.10000000)
		(0.77094972 -0.01679930 0.10000000)
		(0.78770950 0.00658838 0.10000000)
		(0.80446927 0.02991839 0.10000000)
		(0.82122905 0.05298644 0.10000000)
		(0.83798883 0.07559058 0.10000000)
		(0.85474860 0.09753289 0.10000000)
		(0.87150838 0.11862126 0.10000000)
		(0.88826816 0.13867105 0.10000000)
		(0.90502793 0.15750673 0.10000000)
		(0.92178771 0.17496337 0.10000000)
		(0.93854749 0.19088813 0.10000000)
		(0.95530726 0.20514160 0.10000000)
		(0.97206704 0.21759896 0.10000000)
		(0.98882682 0.22815116 0.10000000)
		(1.00558659 0.23670581 0.10000000)
		(1.02234637 0.24318800 0.10000000)
		(1.03910615 0.24754098 0.10000000)
		(1.05586592 0.24972664 0.10000000)
		(1.07262570 0.24972585 0.10000000)
		(1.08938547 0.24753860 0.10000000)
		(1.10614525 0.24318406 0.10000000)
		(1.12290503 0.23670034 0.10000000)
		(1.13966480 0.22814421 0.10000000)
		(1.15642458 0.21759059 0.10000000)
		(1.17318436 0.20513188 0.10000000)
		(1.18994413 0.19087716 0.10000000)
		(1.20670391 0.17495123 0.10000000)
		(1.22346369 0.15749353 0.10000000)
		(1.24022346 0.13865691 0.10000000)
		(1.25698324 0.11860630 0.10000000)
		(1.27374302 0.09751724 0.10000000)
		(1.29050279 0.07557438 0.10000000)
		(1.30726257 0.05296983 0.10000000)
		(1.32402235 0.02990151 0.10000000)
		(1.34078212 0.00657139 0.10000000)
		(1.35754190 -0.01681626 0.10000000)
		(1.37430168 -0.04005668 0.10000000)
		(1.39106145 -0.06294639 0.10000000)
		(1.40782123 -0.08528497 0.10000000)
		(1.42458101 -0.10687686 0.10000000)
		(1.44134078 -0.12753299 0.10000000)
		(1.45810056 -0.14707252 0.10000000)
		(1.47486034 -0.16532437 0.10000000)
		(1.49162011 -0.18212874 0.10000000)
		(1.50837989 -0.19733850 0.10000000)
		(1.52513966 -0.21082049 0.10000000)
		(1.54189944 -0.22245665 0.10000000)
		(1.55865922 -0.23214512 0.10000000)
		(1.57541899 -0.23980106 0.10000000)
		(1.59217877 -0.24535745 0.10000000)
		(1.60893855 -0.24876564 0.10000000)
		(1.62569832 -0.24999578 0.10000000)
		(1.64245810 -0.24903711 0.10000000)
		(1.65921788 -0.24589802 0.10000000)
		(1.67597765 -0.24060600 0.10000000)
		(1.69273743 -0.23320737 0.10000000)
		(1.70949721 -0.22376692 0.10000000)
		(1.72625698 -0.21236730 0.10000000)
		(1.74301676 -0.19910832 0.10000000)
		(1.75977654 -0.18410606 0.10000000)
		(1.77653631 -0.16749189 0.10000000)
		(1.79329609 -0.14941125 0.10000000)
		(1.81005587 -0.13002246 0.10000000)
		(1.82681564 -0.10949527 0.10000000)
		(1.84357542 -0.08800941 0.10000000)
		(1.86033520 -0.06575299 0.10000000)
		(1.87709497 -0.04292087 0.10000000)
		(1.89385475 -0.01971296 0.10000000)
		(1.91061453 0.00366754 0.10000000)
		(1.92737430 0.02701593 0.10000000)
		(1.94413408 0.05012778 0.10000000)
		(1.96089385 0.07280075 0.10000000)
		(1.97765363 0.09483631 0.10000000)
		(1.99441341 0.11604155 0.10000000)
		(2.01117318 0.13623079 0.10000000)
		(2.02793296 0.15522728 0.10000000)
		(2.04469274 0.17286470 0.10000000)
		(2.06145251 0.18898861 0.10000000)
		(2.07821229 0.20345785 0.10000000)
		(2.09497207 0.21614574 0.10000000)
		(2.11173184 0.22694118 0.10000000)
		(2.12849162 0.23574967 0.10000000)
		(2.14525140 0.24249407 0.10000000)
		(2.16201117 0.24711534 0.10000000)
		(2.17877095 0.24957301 0.10000000)
		(2.19553073 0.24984557 0.10000000)
		(2.21229050 0.24793064 0.10000000)
		(2.22905028 0.24384497 0.10000000)
		(2.24581006 0.23762434 0.10000000)
		(2.26256983 0.22932322 0.10000000)
		(2.27932961 0.21901427 0.10000000)
		(2.29608939 0.20678778 0.10000000)
		(2.31284916 0.19275077 0.10000000)
		(2.32960894 0.17702615 0.10000000)
		(2.34636872 0.15975159 0.10000000)
		(2.36312849 0.14107835 0.10000000)
		(2.37988827 0.12116991 0.10000000)
		(2.39664804 0.10020058 0.10000000)
		(2.41340782 0.07835395 0.10000000)
		(2.43016760 0.05582130 0.10000000)
		(2.44692737 0.03279991 0.10000000)
		(2.46368715 0.00949135 0.10000000)
		(2.48044693 -0.01390031 0.10000000)
		(2.49720670 -0.03717028 0.10000000)
		(2.51396648 -0.06011479 0.10000000)
		(2.53072626 -0.08253299 0.10000000)
		(2.54748603 -0.10422857 0.10000000)
		(2.56424581 -0.12501159 0.10000000)
		(2.58100559 -0.14470008 0.10000000)
		(2.59776536 -0.16312166 0.10000000)
		(2.61452514 -0.18011505 0.10000000)
		(2.63128492 -0.19553146 0.10000000)
		(2.64804469 -0.20923591 0.10000000)
		(2.66480447 -0.22110842 0.10000000)
		(2.68156425 -0.23104504 0.10000000)
		(2.69832402 -0.23895876 0.10000000)
		(2.71508380 -0.24478031 0.10000000)
		(2.73184358 -0.24845870 0.10000000)
		(2.74860335 -0.24996174 0.10000000)
		(2.76536313 -0.24927627 0.10000000)
		(2.78212291 -0.24640828 0.10000000)
		(2.79888268 -0.24138288 0.10000000)
		(2.81564246 -0.23424409 0.10000000)
		(2.83240223 -0.22505439 0.10000000)
		(2.84916201 -0.21389425 0.10000000)
		(2.86592179 -0.20086138 0.10000000)
		(2.88268156 -0.18606989 0.10000000)
		(2.89944134 -0.16964928 0.10000000)
		(2.91620112 -0.15174333 0.10000000)
		(2.93296089 -0.13250880 0.10000000)
		(2.95166480 -0.11603336 0.10000000)
		(2.97036872 -0.10129218 0.10000000)
		(2.98907263 -0.08828526 0.10000000)
		(3.00777654 -0.07701259 0.10000000)
		(3.02648045 -0.06747418 0.10000000)
		(3.04518436 -0.05967003 0.10000000)
		(3.06388827 -0.05360013 0.10000000)
		(3.08259218 -0.04926449 0.10000000)
		(3.10129609 -0.04666310 0.10000000)
		(3.12000000 -0.04579598 0.10000000)
		(3.14000000 -0.04579598 0.10000000)
		(3.16000000 -0.04579598 0.10000000)
		(3.18000000 -0.04579598 0.10000000)
		(3.20000000 -0.04579598 0.10000000)
		(3.22000000 -0.04579598 0.10000000)
		(3.24000000 -0.04579598 0.10000000)
		(3.26000000 -0.04579598 0.10000000)
		(3.28000000 -0.04579598 0.10000000)
		(3.30000000 -0.04579598 0.10000000)
		(3.32000000 -0.04579598 0.10000000)
		(3.34000000 -0.04579598 0.10000000)
		(3.36000000 -0.04579598 0.10000000)
		(3.38000000 -0.04579598 0.10000000)
		(3.40000000 -0.04579598 0.10000000)
		(3.42000000 -0.04579598 0.10000000)
		(3.44000000 -0.04579598 0.10000000)
		(3.46000000 -0.04579598 0.10000000)
		(3.48000000 -0.04579598 0.10000000)
		(3.50000000 -0.04579598 0.10000000)
		(3.52000000 -0.04579598 0.10000000)
		(3.54000000 -0.04579598 0.10000000)
		(3.56000000 -0.04579598 0.10000000)
		(3.58000000 -0.04579598 0.10000000)
		(3.60000000 -0.04579598 0.10000000)
		(3.62000000 -0.04579598 0.10000000)
		(3.64000000 -0.04579598 0.10000000)
		(3.66000000 -0.04579598 0.10000000)
		(3.68000000 -0.04579598 0.10000000)
		(3.70000000 -0.04579598 0.10000000)
		(3.72000000 -0.04579598 0.10000000)
		(3.74000000 -0.04579598 0.10000000)
		(3.76000000 -0.04579598 0.10000000)
		(3.78000000 -0.04579598 0.10000000)
		(3.80000000 -0.04579598 0.10000000)
		(3.82000000 -0.04579598 0.10000000)
		(3.84000000 -0.04579598 0.10000000)
		(3.86000000 -0.04579598 0.10000000)
		(3.88000000 -0.04579598 0.10000000)
		(3.90000000 -0.04579598 0.10000000)
		(3.92000000 -0.04579598 0.10000000)
		(3.94000000 -0.04579598 0.10000000)
		(3.96000000 -0.04579598 0.10000000)
		(3.98000000 -0.04579598 0.10000000)
		(4.00000000 -0.04579598 0.10000000)
	)
	polyLine 3 2
	(
		(-1.00000000 0.73574401 0.00000000)
		(-0.98000000 0.73677376 0.00000000)
		(-0.96000000 0.73780351 0.00000000)
		(-0.94000000 0.73883326 0.00000000)
		(-0.92000000 0.73986300 0.00000000)
		(-0.90000000 0.74089275 0.00000000)
		(-0.88000000 0.74192250 0.00000000)
		(-0.86000000 0.74295225 0.00000000)
		(-0.84000000 0.74398200 0.00000000)
		(-0.82000000 0.74501175 0.00000000)
		(-0.80000000 0.74604150 0.00000000)
		(-0.78000000 0.74707124 0.00000000)
		(-0.76000000 0.74810099 0.00000000)
		(-0.74000000 0.74913074 0.00000000)
		(-0.72000000 0.75016049 0.00000000)
		(-0.70000000 0.75119024 0.00000000)
		(-0.68000000 0.75221999 0.00000000)
		(-0.66000000 0.75324973 0.00000000)
		(-0.64000000 0.75427948 0.00000000)
		(-0.62000000 0.75530923 0.00000000)
		(-0.60000000 0.75633898 0.00000000)
		(-0.58000000 0.75736873 0.00000000)
		(-0.56000000 0.75839848 0.00000000)
		(-0.54000000 0.75942823 0.00000000)
		(-0.52000000 0.76045797 0.00000000)
		(-0.50000000 0.76148772 0.00000000)
		(-0.48000000 0.76251747 0.00000000)
		(-0.46000000 0.76354722 0.00000000)
		(-0.44000000 0.76457697 0.00000000)
		(-0.42000000 0.76560672 0.00000000)
		(-0.40000000 0.76663646 0.00000000)
		(-0.38000000 0.76766621 0.00000000)
		(-0.36000000 0.76869596 0.00000000)
		(-0.34000000 0.76972571 0.00000000)
		(-0.32000000 0.77075546 0.00000000)
		(-0.30000000 0.77178521 0.00000000)
		(-0.28000000 0.77281496 0.00000000)
		(-0.26000000 0.77384470 0.00000000)
		(-0.24000000 0.77487445 0.00000000)
		(-0.22000000 0.77590420 0.00000000)
		(-0.20000000 0.77693395 0.00000000)
		(-0.18000000 0.77796370 0.00000000)
		(-0.16000000 0.77899345 0.00000000)
		(-0.14000000 0.78002319 0.00000000)
		(-0.12000000 0.78105294 0.00000000)
		(-0.10000000 0.78208269 0.00000000)
		(-0.08162011 0.78331354 0.00000000)
		(-0.06324022 0.78266567 0.00000000)
		(-0.04486034 0.78013909 0.00000000)
		(-0.02648045 0.77573380 0.00000000)
		(-0.00810056 0.76944979 0.00000000)
		(0.01027933 0.76128707 0.00000000)
		(0.02865922 0.75124563 0.00000000)
		(0.04703911 0.73932548 0.00000000)
		(0.06541899 0.72552661 0.00000000)
		(0.08379888 0.70984903 0.00000000)
		(0.10055866 0.68843531 0.00000000)
		(0.11731844 0.66537177 0.00000000)
		(0.13407821 0.64086032 0.00000000)
		(0.15083799 0.61511559 0.00000000)
		(0.16759777 0.58836298 0.00000000)
		(0.18435754 0.56083671 0.00000000)
		(0.20111732 0.53277779 0.00000000)
		(0.21787709 0.50443189 0.00000000)
		(0.23463687 0.47604718 0.00000000)
		(0.25139665 0.44787220 0.00000000)
		(0.26815642 0.42015361 0.00000000)
		(0.28491620 0.39313411 0.00000000)
		(0.30167598 0.36705026 0.00000000)
		(0.31843575 0.34213044 0.00000000)
		(0.33519553 0.31859284 0.00000000)
		(0.35195531 0.29664352 0.00000000)
		(0.36871508 0.27647467 0.00000000)
		(0.38547486 0.25826288 0.00000000)
		(0.40223464 0.24216759 0.00000000)
		(0.41899441 0.22832973 0.00000000)
		(0.43575419 0.21687045 0.00000000)
		(0.45251397 0.20789008 0.00000000)
		(0.46927374 0.20146726 0.00000000)
		(0.48603352 0.19765820 0.00000000)
		(0.50279330 0.19649627 0.00000000)
		(0.51955307 0.19799164 0.00000000)
		(0.53631285 0.20213121 0.00000000)
		(0.55307263 0.20887874 0.00000000)
		(0.56983240 0.21817516 0.00000000)
		(0.58659218 0.22993906 0.00000000)
		(0.60335196 0.24406746 0.00000000)
		(0.62011173 0.26043665 0.00000000)
		(0.63687151 0.27890331 0.00000000)
		(0.65363128 0.29930576 0.00000000)
		(0.67039106 0.32146537 0.00000000)
		(0.68715084 0.34518812 0.00000000)
		(0.70391061 0.37026632 0.00000000)
		(0.72067039 0.39648038 0.00000000)
		(0.73743017 0.42360080 0.00000000)
		(0.75418994 0.45139012 0.00000000)
		(0.77094972 0.47960505 0.00000000)
		(0.78770950 0.50799854 0.00000000)
		(0.80446927 0.53632199 0.00000000)
		(0.82122905 0.56432744 0.00000000)
		(0.83798883 0.59176967 0.00000000)
		(0.85474860 0.61840843 0.00000000)
		(0.87150838 0.64401046 0.00000000)
		(0.88826816 0.66835163 0.00000000)
		(0.90502793 0.69121882 0.00000000)
		(0.92178771 0.71241181 0.00000000)
		(0.93854749 0.73174504 0.00000000)
		(0.95530726 0.74904926 0.00000000)
		(0.97206704 0.76417295 0.00000000)
		(0.98882682 0.77698369 0.00000000)
		(1.00558659 0.78736934 0.00000000)
		(1.02234637 0.79523895 0.00000000)
		(1.03910615 0.80052363 0.00000000)
		(1.05586592 0.80317710 0.00000000)
		(1.07262570 0.80317614 0.00000000)
		(1.08938547 0.80052074 0.00000000)
		(1.10614525 0.79523417 0.00000000)
		(1.12290503 0.78736270 0.00000000)
		(1.13966480 0.77697526 0.00000000)
		(1.15642458 0.76416279 0.00000000)
		(1.17318436 0.74903746 0.00000000)
		(1.18994413 0.73173172 0.00000000)
		(1.20670391 0.71239707 0.00000000)
		(1.22346369 0.69120279 0.00000000)
		(1.24022346 0.66833447 0.00000000)
		(1.25698324 0.64399230 0.00000000)
		(1.27374302 0.61838943 0.00000000)
		(1.29050279 0.59175000 0.00000000)
		(1.30726257 0.56430727 0.00000000)
		(1.32402235 0.53630151 0.00000000)
		(1.34078212 0.50797791 0.00000000)
		(1.35754190 0.47958446 0.00000000)
		(1.37430168 0.45136975 0.00000000)
		(1.39106145 0.42358083 0.00000000)
		(1.40782123 0.39646098 0.00000000)
		(1.42458101 0.37024766 0.00000000)
		(1.44134078 0.34517038 0.00000000)
		(1.45810056 0.32144868 0.00000000)
		(1.47486034 0.29929028 0.00000000)
		(1.49162011 0.27888917 0.00000000)
		(1.50837989 0.26042398 0.00000000)
		(1.52513966 0.24405637 0.00000000)
		(1.54189944 0.22992965 0.00000000)
		(1.55865922 0.21816750 0.00000000)
		(1.57541899 0.20887291 0.00000000)
		(1.59217877 0.20212725 0.00000000)
		(1.60893855 0.19798959 0.00000000)
		(1.62569832 0.19649615 0.00000000)
		(1.64245810 0.19766001 0.00000000)
		(1.65921788 0.20147098 0.00000000)
		(1.67597765 0.20789569 0.00000000)
		(1.69273743 0.21687789 0.00000000)
		(1.70949721 0.22833893 0.00000000)
		(1.72625698 0.24217848 0.00000000)
		(1.74301676 0.25827536 0.00000000)
		(1.75977654 0.27648863 0.00000000)
		(1.77653631 0.29665884 0.00000000)
		(1.79329609 0.31860938 0.00000000)
		(1.81005587 0.34214807 0.00000000)
		(1.82681564 0.36706881 0.00000000)
		(1.84357542 0.39315342 0.00000000)
		(1.86033520 0.42017352 0.00000000)
		(1.87709497 0.44789252 0.00000000)
		(1.89385475 0.47606775 0.00000000)
		(1.91061453 0.50445252 0.00000000)
		(1.92737430 0.53279830 0.00000000)
		(1.94413408 0.56085692 0.00000000)
		(1.96089385 0.58838272 0.00000000)
		(1.97765363 0.61513468 0.00000000)
		(1.99441341 0.64087860 0.00000000)
		(2.01117318 0.66538907 0.00000000)
		(2.02793296 0.68845149 0.00000000)
		(2.04469274 0.70986394 0.00000000)
		(2.06145251 0.72943895 0.00000000)
		(2.07821229 0.74700513 0.00000000)
		(2.09497207 0.76240868 0.00000000)
		(2.11173184 0.77551474 0.00000000)
		(2.12849162 0.78620855 0.00000000)
		(2.14525140 0.79439650 0.00000000)
		(2.16201117 0.80000688 0.00000000)
		(2.17877095 0.80299059 0.00000000)
		(2.19553073 0.80332149 0.00000000)
		(2.21229050 0.80099669 0.00000000)
		(2.22905028 0.79603654 0.00000000)
		(2.24581006 0.78848447 0.00000000)
		(2.26256983 0.77840661 0.00000000)
		(2.27932961 0.76589119 0.00000000)
		(2.29608939 0.75104778 0.00000000)
		(2.31284916 0.73400634 0.00000000)
		(2.32960894 0.71491609 0.00000000)
		(2.34636872 0.69394416 0.00000000)
		(2.36312849 0.67127418 0.00000000)
		(2.37988827 0.64710461 0.00000000)
		(2.39664804 0.62164709 0.00000000)
		(2.41340782 0.59512450 0.00000000)
		(2.43016760 0.56776906 0.00000000)
		(2.44692737 0.53982027 0.00000000)
		(2.46368715 0.51152284 0.00000000)
		(2.48044693 0.48312452 0.00000000)
		(2.49720670 0.45487395 0.00000000)
		(2.51396648 0.42701848 0.00000000)