/*--------------------------------*- C++ -*----------------------------------*\\
/*--------------------------------*- C++ -*----------------------------------*\\
| =========                 |                                                 |
| \\\\      /  F ield         | OpenFOAM: The Open Source CFD Toolbox           |
|  \\\\    /   O peration     | Version:  v2012                                 |
|   \\\\  /    A nd           | Website:  www.openfoam.com                      |
|    \\\\/     M anipulation  |                                                 |
\\*---------------------------------------------------------------------------*/
FoamFile
{
    version     2.0;
    format      ascii;
    class       dictionary;
    object      blockMeshDict;
}
// * * * * * * * * * * * * * * * * * * * * * * * * * * * * * * * * * * * * * //

scale   0.01;

xmin -1;
xmax 5;
ymin 0;
ymax 0.5;
zmin 0;
zmax 0.1;

vertices
(
    (-1.00000000 -0.10722485 0.00000000)
    (4.00000000 -0.13982838 0.00000000)
    (4.00000000 0.36017162 0.00000000)
    (-1.00000000 0.39277515 0.00000000)
    (-1.00000000 -0.10722485 0.10000000)
    (4.00000000 -0.13982838 0.10000000)
    (4.00000000 0.36017162 0.10000000)
    (-1.00000000 0.39277515 0.10000000)
);

blocks
(
    hex (0 1 2 3 4 5 6 7) (200 20 1) simpleGrading (1 1 1)
);

edges
(
	polyLine 0 1
	(
		(-1.00000000 -0.10722485 0.00000000)
		(-0.98000000 -0.10722485 0.00000000)
		(-0.96000000 -0.10722485 0.00000000)
		(-0.94000000 -0.10722485 0.00000000)
		(-0.92000000 -0.10722485 0.00000000)
		(-0.90000000 -0.10722485 0.00000000)
		(-0.88000000 -0.10722485 0.00000000)
		(-0.86000000 -0.10722485 0.00000000)
		(-0.84000000 -0.10722485 0.00000000)
		(-0.82000000 -0.10722485 0.00000000)
		(-0.80000000 -0.10722485 0.00000000)
		(-0.78000000 -0.10722485 0.00000000)
		(-0.76000000 -0.10722485 0.00000000)
		(-0.74000000 -0.10722485 0.00000000)
		(-0.72000000 -0.10722485 0.00000000)
		(-0.70000000 -0.10722485 0.00000000)
		(-0.68000000 -0.10722485 0.00000000)
		(-0.66000000 -0.10722485 0.00000000)
		(-0.64000000 -0.10722485 0.00000000)
		(-0.62000000 -0.10722485 0.00000000)
		(-0.60000000 -0.10722485 0.00000000)
		(-0.58000000 -0.10722485 0.00000000)
		(-0.56000000 -0.10722485 0.00000000)
		(-0.54000000 -0.10722485 0.00000000)
		(-0.52000000 -0.10722485 0.00000000)
		(-0.50000000 -0.10722485 0.00000000)
		(-0.48000000 -0.10722485 0.00000000)
		(-0.46000000 -0.10722485 0.00000000)
		(-0.44000000 -0.10722485 0.00000000)
		(-0.42000000 -0.10722485 0.00000000)
		(-0.40000000 -0.10722485 0.00000000)
		(-0.38000000 -0.10722485 0.00000000)
		(-0.36000000 -0.10722485 0.00000000)
		(-0.34000000 -0.10722485 0.00000000)
		(-0.32000000 -0.10722485 0.00000000)
		(-0.30000000 -0.10722485 0.00000000)
		(-0.28000000 -0.10722485 0.00000000)
		(-0.26000000 -0.10722485 0.00000000)
		(-0.24000000 -0.10722485 0.00000000)
		(-0.22000000 -0.10722485 0.00000000)
		(-0.20000000 -0.10722485 0.00000000)
		(-0.18000000 -0.10722485 0.00000000)
		(-0.16000000 -0.10722485 0.00000000)
		(-0.14000000 -0.10722485 0.00000000)
		(-0.12000000 -0.10722485 0.00000000)
		(-0.10000000 -0.10722485 0.00000000)
		(-0.08162011 -0.10639337 0.00000000)
		(-0.06324022 -0.10389892 0.00000000)
		(-0.04486034 -0.09974151 0.00000000)
		(-0.02648045 -0.09392113 0.00000000)
		(-0.00810056 -0.08643779 0.00000000)
		(0.01027933 -0.07729149 0.00000000)
		(0.02865922 -0.06648222 0.00000000)
		(0.04703911 -0.05400998 0.00000000)
		(0.06541899 -0.03987479 0.00000000)
		(0.08379888 -0.02407662 0.00000000)
		(0.10055866 -0.00677226 0.00000000)
		(0.11731844 0.01056466 0.00000000)
		(0.13407821 0.02785078 0.00000000)
		(0.15083799 0.04500296 0.00000000)
		(0.16759777 0.06193869 0.00000000)
		(0.18435754 0.07857655 0.00000000)
		(0.20111732 0.09483649 0.00000000)
		(0.21787709 0.11064033 0.00000000)
		(0.23463687 0.12591206 0.00000000)
		(0.25139665 0.14057823 0.00000000)
		(0.26815642 0.15456831 0.00000000)
		(0.28491620 0.16781500 0.00000000)
		(0.30167598 0.18025462 0.00000000)
		(0.31843575 0.19182731 0.00000000)
		(0.33519553 0.20247744 0.00000000)
		(0.35195531 0.21215378 0.00000000)
		(0.36871508 0.22080978 0.00000000)
		(0.38547486 0.22840383 0.00000000)
		(0.40223464 0.23489940 0.00000000)
		(0.41899441 0.24026524 0.00000000)
		(0.43575419 0.24447556 0.00000000)
		(0.45251397 0.24751010 0.00000000)
		(0.46927374 0.24935427 0.00000000)
		(0.48603352 0.24999920 0.00000000)
		(0.50279330 0.24944179 0.00000000)
		(0.51955307 0.24768472 0.00000000)
		(0.53631285 0.24473644 0.00000000)
		(0.55307263 0.24061112 0.00000000)
		(0.56983240 0.23532862 0.00000000)
		(0.58659218 0.22891433 0.00000000)
		(0.60335196 0.22139910 0.00000000)
		(0.62011173 0.21281908 0.00000000)
		(0.63687151 0.20321554 0.00000000)
		(0.65363128 0.19263465 0.00000000)
		(0.67039106 0.18112730 0.00000000)
		(0.68715084 0.16874885 0.00000000)
		(0.70391061 0.15555882 0.00000000)
		(0.72067039 0.14162065 0.00000000)
		(0.73743017 0.12700137 0.00000000)
		(0.75418994 0.11177129 0.00000000)
		(0.77094972 0.09600366 0.00000000)
		(0.78770950 0.07977431 0.00000000)
		(0.80446927 0.06316130 0.00000000)
		(0.82122905 0.04624452 0.00000000)
		(0.83798883 0.02910533 0.00000000)
		(0.85474860 0.01182616 0.00000000)
		(0.87150838 -0.00550988 0.00000000)
		(0.88826816 -0.02281942 0.00000000)
		(0.90502793 -0.04001922 0.00000000)
		(0.92178771 -0.05702655 0.00000000)
		(0.93854749 -0.07375961 0.00000000)
		(0.95530726 -0.09013794 0.00000000)
		(0.97206704 -0.10608276 0.00000000)
		(0.98882682 -0.12151739 0.00000000)
		(1.00558659 -0.13636759 0.00000000)
		(1.02234637 -0.15056195 0.00000000)
		(1.03910615 -0.16403220 0.00000000)
		(1.05586592 -0.17671356 0.00000000)
		(1.07262570 -0.18854503 0.00000000)
		(1.08938547 -0.19946972 0.00000000)
		(1.10614525 -0.20943508 0.00000000)
		(1.12290503 -0.21839319 0.00000000)
		(1.13966480 -0.22630096 0.00000000)
		(1.15642458 -0.23312037 0.00000000)
		(1.17318436 -0.23881861 0.00000000)
		(1.18994413 -0.24336828 0.00000000)
		(1.20670391 -0.24674749 0.00000000)
		(1.22346369 -0.24894001 0.00000000)
		(1.24022346 -0.24993528 0.00000000)
		(1.25698324 -0.24972851 0.00000000)
		(1.27374302 -0.24832070 0.00000000)
		(1.29050279 -0.24571863 0.00000000)
		(1.30726257 -0.24193479 0.00000000)
		(1.32402235 -0.23698741 0.00000000)
		(1.34078212 -0.23090026 0.00000000)
		(1.35754190 -0.22370262 0.00000000)
		(1.37430168 -0.21542911 0.00000000)
		(1.39106145 -0.20611952 0.00000000)
		(1.40782123 -0.19581862 0.00000000)
		(1.42458101 -0.18457595 0.00000000)
		(1.44134078 -0.17244559 0.00000000)
		(1.45810056 -0.15948587 0.00000000)
		(1.47486034 -0.14575912 0.00000000)
		(1.49162011 -0.13133137 0.00000000)
		(1.50837989 -0.11627198 0.00000000)
		(1.52513966 -0.10065341 0.00000000)
		(1.54189944 -0.08455075 0.00000000)
		(1.55865922 -0.06804145 0.00000000)
		(1.57541899 -0.05120492 0.00000000)
		(1.59217877 -0.03412212 0.00000000)
		(1.60893855 -0.01687522 0.00000000)
		(1.62569832 0.00045284 0.00000000)
		(1.64245810 0.01777873 0.00000000)
		(1.65921788 0.03501911 0.00000000)
		(1.67597765 0.05209107 0.00000000)
		(1.69273743 0.06891250 0.00000000)
		(1.70949721 0.08540251 0.00000000)
		(1.72625698 0.10148178 0.00000000)
		(1.74301676 0.11707299 0.00000000)
		(1.75977654 0.13210115 0.00000000)
		(1.77653631 0.14649399 0.00000000)
		(1.79329609 0.16018227 0.00000000)
		(1.81005587 0.17310019 0.00000000)
		(1.82681564 0.18518559 0.00000000)
		(1.84357542 0.19638037 0.00000000)
		(1.86033520 0.20663068 0.00000000)
		(1.87709497 0.21588723 0.00000000)
		(1.89385475 0.22410549 0.00000000)
		(1.91061453 0.23124594 0.00000000)
		(1.92737430 0.23727424 0.00000000)
		(1.94413408 0.24216140 0.00000000)
		(1.96089385 0.24588391 0.00000000)
		(1.97765363 0.24842387 0.00000000)
		(1.99441341 0.24976907 0.00000000)
		(2.01117318 0.24991303 0.00000000)
		(2.02793296 0.24885506 0.00000000)
		(2.04469274 0.24660026 0.00000000)
		(2.06145251 0.24315946 0.00000000)
		(2.07821229 0.23854921 0.00000000)
		(2.09497207 0.23279169 0.00000000)
		(2.11173184 0.22591458 0.00000000)
		(2.12849162 0.21795097 0.00000000)
		(2.14525140 0.20893914 0.00000000)
		(2.16201117 0.19892245 0.00000000)
		(2.17877095 0.18794906 0.00000000)
		(2.19553073 0.17607176 0.00000000)
		(2.21229050 0.16334766 0.00000000)
		(2.22905028 0.14983795 0.00000000)
		(2.24581006 0.13560762 0.00000000)
		(2.26256983 0.12072510 0.00000000)
		(2.27932961 0.10526197 0.00000000)
		(2.29608939 0.08929259 0.00000000)
		(2.31284916 0.07289377 0.00000000)
		(2.32960894 0.05614437 0.00000000)
		(2.34636872 0.03912496 0.00000000)
		(2.36312849 0.02191737 0.00000000)
		(2.37988827 0.00460438 0.00000000)
		(2.39664804 -0.01273075 0.00000000)
		(2.41340782 -0.03000466 0.00000000)
		(2.43016760 -0.04713426 0.00000000)
		(2.44692737 -0.06403718 0.00000000)
		(2.46368715 -0.08063212 0.00000000)
		(2.48044693 -0.09683927 0.00000000)
		(2.49720670 -0.11258068 0.00000000)
		(2.51396648 -0.12778064 0.00000000)
		(2.53072626 -0.14236607 0.00000000)
		(2.54748603 -0.15626679 0.00000000)
		(2.56424581 -0.16941597 0.00000000)
		(2.58100559 -0.18175037 0.00000000)
		(2.59776536 -0.19321066 0.00000000)
		(2.61452514 -0.20374172 0.00000000)
		(2.63128492 -0.21329291 0.00000000)
		(2.64804469 -0.22181830 0.00000000)
		(2.66480447 -0.22927687 0.00000000)
		(2.68156425 -0.23563277 0.00000000)
		(2.69832402 -0.24085542 0.00000000)
		(2.71508380 -0.24491970 0.00000000)
		(2.73184358 -0.24780607 0.00000000)
		(2.74860335 -0.24950064 0.00000000)
		(2.76536313 -0.24999527 0.00000000)
		(2.78212291 -0.24928758 0.00000000)
		(2.79888268 -0.24738097 0.00000000)
		(2.81564246 -0.24428461 0.00000000)
		(2.83240223 -0.24001339 0.00000000)
		(2.84916201 -0.23458786 0.00000000)
		(2.86592179 -0.22803410 0.00000000)
		(2.88268156 -0.22038364 0.00000000)
		(2.89944134 -0.21167327 0.00000000)
		(2.91620112 -0.20194488 0.00000000)
		(2.93296089 -0.19124526 0.00000000)
		(2.95166480 -0.18147605 0.00000000)
		(2.97036872 -0.17273518 0.00000000)
		(2.98907263 -0.16502265 0.00000000)
		(3.00777654 -0.15833846 0.00000000)
		(3.02648045 -0.15268260 0.00000000)
		(3.04518436 -0.14805508 0.00000000)
		(3.06388827 -0.14445590 0.00000000)
		(3.08259218 -0.14188505 0.00000000)
		(3.10129609 -0.14034255 0.00000000)
		(3.12000000 -0.13982838 0.00000000)
		(3.14000000 -0.13982838 0.00000000)
		(3.16000000 -0.13982838 0.00000000)
		(3.18000000 -0.13982838 0.00000000)
		(3.20000000 -0.13982838 0.00000000)
		(3.22000000 -0.13982838 0.00000000)
		(3.24000000 -0.13982838 0.00000000)
		(3.26000000 -0.13982838 0.00000000)
		(3.28000000 -0.13982838 0.00000000)
		(3.30000000 -0.13982838 0.00000000)
		(3.32000000 -0.13982838 0.00000000)
		(3.34000000 -0.13982838 0.00000000)
		(3.36000000 -0.13982838 0.00000000)
		(3.38000000 -0.13982838 0.00000000)
		(3.40000000 -0.13982838 0.00000000)
		(3.42000000 -0.13982838 0.00000000)
		(3.44000000 -0.13982838 0.00000000)
		(3.46000000 -0.13982838 0.00000000)
		(3.48000000 -0.13982838 0.00000000)
		(3.50000000 -0.13982838 0.00000000)
		(3.52000000 -0.13982838 0.00000000)
		(3.54000000 -0.13982838 0.00000000)
		(3.56000000 -0.13982838 0.00000000)
		(3.58000000 -0.13982838 0.00000000)
		(3.60000000 -0.13982838 0.00000000)
		(3.62000000 -0.13982838 0.00000000)
		(3.64000000 -0.13982838 0.00000000)
		(3.66000000 -0.13982838 0.00000000)
		(3.68000000 -0.13982838 0.00000000)
		(3.70000000 -0.13982838 0.00000000)
		(3.72000000 -0.13982838 0.00000000)
		(3.74000000 -0.13982838 0.00000000)
		(3.76000000 -0.13982838 0.00000000)
		(3.78000000 -0.13982838 0.00000000)
		(3.80000000 -0.13982838 0.00000000)
		(3.82000000 -0.13982838 0.00000000)
		(3.84000000 -0.13982838 0.00000000)
		(3.86000000 -0.13982838 0.00000000)
		(3.88000000 -0.13982838 0.00000000)
		(3.90000000 -0.13982838 0.00000000)
		(3.92000000 -0.13982838 0.00000000)
		(3.94000000 -0.13982838 0.00000000)
		(3.96000000 -0.13982838 0.00000000)
		(3.98000000 -0.13982838 0.00000000)
		(4.00000000 -0.13982838 0.00000000)
	)
	polyLine 4 5
	(
		(-1.00000000 -0.10722485 0.10000000)
		(-0.98000000 -0.10722485 0.10000000)
		(-0.96000000 -0.10722485 0.10000000)
		(-0.94000000 -0.10722485 0.10000000)
		(-0.92000000 -0.10722485 0.10000000)
		(-0.90000000 -0.10722485 0.10000000)
		(-0.88000000 -0.10722485 0.10000000)
		(-0.86000000 -0.10722485 0.10000000)
		(-0.84000000 -0.10722485 0.10000000)
		(-0.82000000 -0.10722485 0.10000000)
		(-0.80000000 -0.10722485 0.10000000)
		(-0.78000000 -0.10722485 0.10000000)
		(-0.76000000 -0.10722485 0.10000000)
		(-0.74000000 -0.10722485 0.10000000)
		(-0.72000000 -0.10722485 0.10000000)
		(-0.70000000 -0.10722485 0.10000000)
		(-0.68000000 -0.10722485 0.10000000)
		(-0.66000000 -0.10722485 0.10000000)
		(-0.64000000 -0.10722485 0.10000000)
		(-0.62000000 -0.10722485 0.10000000)
		(-0.60000000 -0.10722485 0.10000000)
		(-0.58000000 -0.10722485 0.10000000)
		(-0.56000000 -0.10722485 0.10000000)
		(-0.54000000 -0.10722485 0.10000000)
		(-0.52000000 -0.10722485 0.10000000)
		(-0.50000000 -0.10722485 0.10000000)
		(-0.48000000 -0.10722485 0.10000000)
		(-0.46000000 -0.10722485 0.10000000)
		(-0.44000000 -0.10722485 0.10000000)
		(-0.42000000 -0.10722485 0.10000000)
		(-0.40000000 -0.10722485 0.10000000)
		(-0.38000000 -0.10722485 0.10000000)
		(-0.36000000 -0.10722485 0.10000000)
		(-0.34000000 -0.10722485 0.10000000)
		(-0.32000000 -0.10722485 0.10000000)
		(-0.30000000 -0.10722485 0.10000000)
		(-0.28000000 -0.10722485 0.10000000)
		(-0.26000000 -0.10722485 0.10000000)
		(-0.24000000 -0.10722485 0.10000000)
		(-0.22000000 -0.10722485 0.10000000)
		(-0.20000000 -0.10722485 0.10000000)
		(-0.18000000 -0.10722485 0.10000000)
		(-0.16000000 -0.10722485 0.10000000)
		(-0.14000000 -0.10722485 0.10000000)
		(-0.12000000 -0.10722485 0.10000000)
		(-0.10000000 -0.10722485 0.10000000)
		(-0.08162011 -0.10639337 0.10000000)
		(-0.06324022 -0.10389892 0.10000000)
		(-0.04486034 -0.09974151 0.10000000)
		(-0.02648045 -0.09392113 0.10000000)
		(-0.00810056 -0.08643779 0.10000000)
		(0.01027933 -0.07729149 0.10000000)
		(0.02865922 -0.06648222 0.10000000)
		(0.04703911 -0.05400998 0.10000000)
		(0.06541899 -0.03987479 0.10000000)
		(0.08379888 -0.02407662 0.10000000)
		(0.10055866 -0.00677226 0.10000000)
		(0.11731844 0.01056466 0.10000000)
		(0.13407821 0.02785078 0.10000000)
		(0.15083799 0.04500296 0.10000000)
		(0.16759777 0.06193869 0.10000000)
		(0.18435754 0.07857655 0.10000000)
		(0.20111732 0.09483649 0.10000000)
		(0.21787709 0.11064033 0.10000000)
		(0.23463687 0.12591206 0.10000000)
		(0.25139665 0.14057823 0.10000000)
		(0.26815642 0.15456831 0.10000000)
		(0.28491620 0.16781500 0.10000000)
		(0.30167598 0.18025462 0.10000000)
		(0.31843575 0.19182731 0.10000000)
		(0.33519553 0.20247744 0.10000000)
		(0.35195531 0.21215378 0.10000000)
		(0.36871508 0.22080978 0.10000000)
		(0.38547486 0.22840383 0.10000000)
		(0.40223464 0.23489940 0.10000000)
		(0.41899441 0.24026524 0.10000000)
		(0.43575419 0.24447556 0.10000000)
		(0.45251397 0.24751010 0.10000000)
		(0.46927374 0.24935427 0.10000000)
		(0.48603352 0.24999920 0.10000000)
		(0.50279330 0.24944179 0.10000000)
		(0.51955307 0.24768472 0.10000000)
		(0.53631285 0.24473644 0.10000000)
		(0.55307263 0.24061112 0.10000000)
		(0.56983240 0.23532862 0.10000000)
		(0.58659218 0.22891433 0.10000000)
		(0.60335196 0.22139910 0.10000000)
		(0.62011173 0.21281908 0.10000000)
		(0.63687151 0.20321554 0.10000000)
		(0.65363128 0.19263465 0.10000000)
		(0.67039106 0.18112730 0.10000000)
		(0.68715084 0.16874885 0.10000000)
		(0.70391061 0.15555882 0.10000000)
		(0.72067039 0.14162065 0.10000000)
		(0.73743017 0.12700137 0.10000000)
		(0.75418994 0.11177129 0.10000000)
		(0.77094972 0.09600366 0.10000000)
		(0.78770950 0.07977431 0.10000000)
		(0.80446927 0.06316130 0.10000000)
		(0.82122905 0.04624452 0.10000000)
		(0.83798883 0.02910533 0.10000000)
		(0.85474860 0.01182616 0.10000000)
		(0.87150838 -0.00550988 0.10000000)
		(0.88826816 -0.02281942 0.10000000)
		(0.90502793 -0.04001922 0.10000000)
		(0.92178771 -0.05702655 0.10000000)
		(0.93854749 -0.07375961 0.10000000)
		(0.95530726 -0.09013794 0.10000000)
		(0.97206704 -0.10608276 0.10000000)
		(0.98882682 -0.12151739 0.10000000)
		(1.00558659 -0.13636759 0.10000000)
		(1.02234637 -0.15056195 0.10000000)
		(1.03910615 -0.16403220 0.10000000)
		(1.05586592 -0.17671356 0.10000000)
		(1.07262570 -0.18854503 0.10000000)
		(1.08938547 -0.19946972 0.10000000)
		(1.10614525 -0.20943508 0.10000000)
		(1.12290503 -0.21839319 0.10000000)
		(1.13966480 -0.22630096 0.10000000)
		(1.15642458 -0.23312037 0.10000000)
		(1.17318436 -0.23881861 0.10000000)
		(1.18994413 -0.24336828 0.10000000)
		(1.20670391 -0.24674749 0.10000000)
		(1.22346369 -0.24894001 0.10000000)
		(1.24022346 -0.24993528 0.10000000)
		(1.25698324 -0.24972851 0.10000000)
		(1.27374302 -0.24832070 0.10000000)
		(1.29050279 -0.24571863 0.10000000)
		(1.30726257 -0.24193479 0.10000000)
		(1.32402235 -0.23698741 0.10000000)
		(1.34078212 -0.23090026 0.10000000)
		(1.35754190 -0.22370262 0.10000000)
		(1.37430168 -0.21542911 0.10000000)
		(1.39106145 -0.20611952 0.10000000)
		(1.40782123 -0.19581862 0.10000000)
		(1.42458101 -0.18457595 0.10000000)
		(1.44134078 -0.17244559 0.10000000)
		(1.45810056 -0.15948587 0.10000000)
		(1.47486034 -0.14575912 0.10000000)
		(1.49162011 -0.13133137 0.10000000)
		(1.50837989 -0.11627198 0.10000000)
		(1.52513966 -0.10065341 0.10000000)
		(1.54189944 -0.08455075 0.10000000)
		(1.55865922 -0.06804145 0.10000000)
		(1.57541899 -0.05120492 0.10000000)
		(1.59217877 -0.03412212 0.10000000)
		(1.60893855 -0.01687522 0.10000000)
		(1.62569832 0.00045284 0.10000000)
		(1.64245810 0.01777873 0.10000000)
		(1.65921788 0.03501911 0.10000000)
		(1.67597765 0.05209107 0.10000000)
		(1.69273743 0.06891250 0.10000000)
		(1.70949721 0.08540251 0.10000000)
		(1.72625698 0.10148178 0.10000000)
		(1.74301676 0.11707299 0.10000000)
		(1.75977654 0.13210115 0.10000000)
		(1.77653631 0.14649399 0.10000000)
		(1.79329609 0.16018227 0.10000000)
		(1.81005587 0.17310019 0.10000000)
		(1.82681564 0.18518559 0.10000000)
		(1.84357542 0.19638037 0.10000000)
		(1.86033520 0.20663068 0.10000000)
		(1.87709497 0.21588723 0.10000000)
		(1.89385475 0.22410549 0.10000000)
		(1.91061453 0.23124594 0.10000000)
		(1.92737430 0.23727424 0.10000000)
		(1.94413408 0.24216140 0.10000000)
		(1.96089385 0.24588391 0.10000000)
		(1.97765363 0.24842387 0.10000000)
		(1.99441341 0.24976907 0.10000000)
		(2.01117318 0.24991303 0.10000000)
		(2.02793296 0.24885506 0.10000000)
		(2.04469274 0.24660026 0.10000000)
		(2.06145251 0.24315946 0.10000000)
		(2.07821229 0.23854921 0.10000000)
		(2.09497207 0.23279169 0.10000000)
		(2.11173184 0.22591458 0.10000000)
		(2.12849162 0.21795097 0.10000000)
		(2.14525140 0.20893914 0.10000000)
		(2.16201117 0.19892245 0.10000000)
		(2.17877095 0.18794906 0.10000000)
		(2.19553073 0.17607176 0.10000000)
		(2.21229050 0.16334766 0.10000000)
		(2.22905028 0.14983795 0.10000000)
		(2.24581006 0.13560762 0.10000000)
		(2.26256983 0.12072510 0.10000000)
		(2.27932961 0.10526197 0.10000000)
		(2.29608939 0.08929259 0.10000000)
		(2.31284916 0.07289377 0.10000000)
		(2.32960894 0.05614437 0.10000000)
		(2.34636872 0.03912496 0.10000000)
		(2.36312849 0.02191737 0.10000000)
		(2.37988827 0.00460438 0.10000000)
		(2.39664804 -0.01273075 0.10000000)
		(2.41340782 -0.03000466 0.10000000)
		(2.43016760 -0.04713426 0.10000000)
		(2.44692737 -0.06403718 0.10000000)
		(2.46368715 -0.08063212 0.10000000)
		(2.48044693 -0.09683927 0.10000000)
		(2.49720670 -0.11258068 0.10000000)
		(2.51396648 -0.12778064 0.10000000)
		(2.53072626 -0.14236607 0.10000000)
		(2.54748603 -0.15626679 0.10000000)
		(2.56424581 -0.16941597 0.10000000)
		(2.58100559 -0.18175037 0.10000000)
		(2.59776536 -0.19321066 0.10000000)
		(2.61452514 -0.20374172 0.10000000)
		(2.63128492 -0.21329291 0.10000000)
		(2.64804469 -0.22181830 0.10000000)
		(2.66480447 -0.22927687 0.10000000)
		(2.68156425 -0.23563277 0.10000000)
		(2.69832402 -0.24085542 0.10000000)
		(2.71508380 -0.24491970 0.10000000)
		(2.73184358 -0.24780607 0.10000000)
		(2.74860335 -0.24950064 0.10000000)
		(2.76536313 -0.24999527 0.10000000)
		(2.78212291 -0.24928758 0.10000000)
		(2.79888268 -0.24738097 0.10000000)
		(2.81564246 -0.24428461 0.10000000)
		(2.83240223 -0.24001339 0.10000000)
		(2.84916201 -0.23458786 0.10000000)
		(2.86592179 -0.22803410 0.10000000)
		(2.88268156 -0.22038364 0.10000000)
		(2.89944134 -0.21167327 0.10000000)
		(2.91620112 -0.20194488 0.10000000)
		(2.93296089 -0.19124526 0.10000000)
		(2.95166480 -0.18147605 0.10000000)
		(2.97036872 -0.17273518 0.10000000)
		(2.98907263 -0.16502265 0.10000000)
		(3.00777654 -0.15833846 0.10000000)
		(3.02648045 -0.15268260 0.10000000)
		(3.04518436 -0.14805508 0.10000000)
		(3.06388827 -0.14445590 0.10000000)
		(3.08259218 -0.14188505 0.10000000)
		(3.10129609 -0.14034255 0.10000000)
		(3.12000000 -0.13982838 0.10000000)
		(3.14000000 -0.13982838 0.10000000)
		(3.16000000 -0.13982838 0.10000000)
		(3.18000000 -0.13982838 0.10000000)
		(3.20000000 -0.13982838 0.10000000)
		(3.22000000 -0.13982838 0.10000000)
		(3.24000000 -0.13982838 0.10000000)
		(3.26000000 -0.13982838 0.10000000)
		(3.28000000 -0.13982838 0.10000000)
		(3.30000000 -0.13982838 0.10000000)
		(3.32000000 -0.13982838 0.10000000)
		(3.34000000 -0.13982838 0.10000000)
		(3.36000000 -0.13982838 0.10000000)
		(3.38000000 -0.13982838 0.10000000)
		(3.40000000 -0.13982838 0.10000000)
		(3.42000000 -0.13982838 0.10000000)
		(3.44000000 -0.13982838 0.10000000)
		(3.46000000 -0.13982838 0.10000000)
		(3.48000000 -0.13982838 0.10000000)
		(3.50000000 -0.13982838 0.10000000)
		(3.52000000 -0.13982838 0.10000000)
		(3.54000000 -0.13982838 0.10000000)
		(3.56000000 -0.13982838 0.10000000)
		(3.58000000 -0.13982838 0.10000000)
		(3.60000000 -0.13982838 0.10000000)
		(3.62000000 -0.13982838 0.10000000)
		(3.64000000 -0.13982838 0.10000000)
		(3.66000000 -0.13982838 0.10000000)
		(3.68000000 -0.13982838 0.10000000)
		(3.70000000 -0.13982838 0.10000000)
		(3.72000000 -0.13982838 0.10000000)
		(3.74000000 -0.13982838 0.10000000)
		(3.76000000 -0.13982838 0.10000000)
		(3.78000000 -0.13982838 0.10000000)
		(3.80000000 -0.13982838 0.10000000)
		(3.82000000 -0.13982838 0.10000000)
		(3.84000000 -0.13982838 0.10000000)
		(3.86000000 -0.13982838 0.10000000)
		(3.88000000 -0.13982838 0.10000000)
		(3.90000000 -0.13982838 0.10000000)
		(3.92000000 -0.13982838 0.10000000)
		(3.94000000 -0.13982838 0.10000000)
		(3.96000000 -0.13982838 0.10000000)
		(3.98000000 -0.13982838 0.10000000)
		(4.00000000 -0.13982838 0.10000000)
	)
	polyLine 3 2
	(
		(-1.00000000 0.39277515 0.00000000)
		(-0.98000000 0.39324260 0.00000000)
		(-0.96000000 0.39371006 0.00000000)
		(-0.94000000 0.39417751 0.00000000)
		(-0.92000000 0.39464496 0.00000000)
		(-0.90000000 0.39511241 0.00000000)
		(-0.88000000 0.39557987 0.00000000)
		(-0.86000000 0.39604732 0.00000000)
		(-0.84000000 0.39651477 0.00000000)
		(-0.82000000 0.39698222 0.00000000)
		(-0.80000000 0.39744968 0.00000000)
		(-0.78000000 0.39791713 0.00000000)
		(-0.76000000 0.39838458 0.00000000)
		(-0.74000000 0.39885203 0.00000000)
		(-0.72000000 0.39931949 0.00000000)
		(-0.70000000 0.39978694 0.00000000)
		(-0.68000000 0.40025439 0.00000000)
		(-0.66000000 0.40072184 0.00000000)
		(-0.64000000 0.40118930 0.00000000)
		(-0.62000000 0.40165675 0.00000000)
		(-0.60000000 0.40212420 0.00000000)
		(-0.58000000 0.40259165 0.00000000)
		(-0.56000000 0.40305910 0.00000000)
		(-0.54000000 0.40352656 0.00000000)
		(-0.52000000 0.40399401 0.00000000)
		(-0.50000000 0.40446146 0.00000000)
		(-0.48000000 0.40492891 0.00000000)
		(-0.46000000 0.40539637 0.00000000)
		(-0.44000000 0.40586382 0.00000000)
		(-0.42000000 0.40633127 0.00000000)
		(-0.40000000 0.40679872 0.00000000)
		(-0.38000000 0.40726618 0.00000000)
		(-0.36000000 0.40773363 0.00000000)
		(-0.34000000 0.40820108 0.00000000)
		(-0.32000000 0.40866853 0.00000000)
		(-0.30000000 0.40913599 0.00000000)
		(-0.28000000 0.40960344 0.00000000)
		(-0.26000000 0.41007089 0.00000000)
		(-0.24000000 0.41053834 0.00000000)
		(-0.22000000 0.41100580 0.00000000)
		(-0.20000000 0.41147325 0.00000000)
		(-0.18000000 0.41194070 0.00000000)
		(-0.16000000 0.41240815 0.00000000)
		(-0.14000000 0.41287561 0.00000000)
		(-0.12000000 0.41334306 0.00000000)
		(-0.10000000 0.41381051 0.00000000)
		(-0.08162011 0.41369942 0.00000000)
		(-0.06324022 0.41510759 0.00000000)
		(-0.04486034 0.41803503 0.00000000)
		(-0.02648045 0.42248173 0.00000000)
		(-0.00810056 0.42844771 0.00000000)
		(0.01027933 0.43593295 0.00000000)
		(0.02865922 0.44493745 0.00000000)
		(0.04703911 0.45546123 0.00000000)
		(0.06541899 0.46750427 0.00000000)
		(0.08379888 0.48106658 0.00000000)
		(0.10055866 0.49467441 0.00000000)
		(0.11731844 0.50830786 0.00000000)
		(0.13407821 0.52190135 0.00000000)
		(0.15083799 0.53538951 0.00000000)
		(0.16759777 0.54870747 0.00000000)
		(0.18435754 0.56179117 0.00000000)
		(0.20111732 0.57457770 0.00000000)
		(0.21787709 0.58700555 0.00000000)
		(0.23463687 0.59901497 0.00000000)
		(0.25139665 0.61054818 0.00000000)
		(0.26815642 0.62154972 0.00000000)
		(0.28491620 0.63196668 0.00000000)
		(0.30167598 0.64174897 0.00000000)
		(0.31843575 0.65084953 0.00000000)
		(0.33519553 0.65922459 0.00000000)
		(0.35195531 0.66683389 0.00000000)
		(0.36871508 0.67364081 0.00000000)
		(0.38547486 0.67961264 0.00000000)
		(0.40223464 0.68472063 0.00000000)
		(0.41899441 0.68894024 0.00000000)
		(0.43575419 0.69225115 0.00000000)
		(0.45251397 0.69463746 0.00000000)
		(0.46927374 0.69608768 0.00000000)
		(0.48603352 0.69659485 0.00000000)
		(0.50279330 0.69615651 0.00000000)
		(0.51955307 0.69477478 0.00000000)
		(0.53631285 0.69245630 0.00000000)
		(0.55307263 0.68921223 0.00000000)
		(0.56983240 0.68505816 0.00000000)
		(0.58659218 0.68001408 0.00000000)
		(0.60335196 0.67410425 0.00000000)
		(0.62011173 0.66735707 0.00000000)
		(0.63687151 0.65980502 0.00000000)
		(0.65363128 0.65148440 0.00000000)
		(0.67039106 0.64243523 0.00000000)
		(0.68715084 0.63270104 0.00000000)
		(0.70391061 0.62232864 0.00000000)
		(0.72067039 0.61136791 0.00000000)
		(0.73743017 0.59987157 0.00000000)
		(0.75418994 0.58789492 0.00000000)
		(0.77094972 0.57549554 0.00000000)
		(0.78770950 0.56273307 0.00000000)
		(0.80446927 0.54966890 0.00000000)
		(0.82122905 0.53636585 0.00000000)
		(0.83798883 0.52288790 0.00000000)
		(0.85474860 0.50929988 0.00000000)
		(0.87150838 0.49566713 0.00000000)
		(0.88826816 0.48205522 0.00000000)
		(0.90502793 0.46852961 0.00000000)
		(0.92178771 0.45515535 0.00000000)
		(0.93854749 0.44199677 0.00000000)
		(0.95530726 0.42911715 0.00000000)
		(0.97206704 0.41657844 0.00000000)
		(0.98882682 0.40444092 0.00000000)
		(1.00558659 0.39276299 0.00000000)
		(1.02234637 0.38160081 0.00000000)
		(1.03910615 0.37100804 0.00000000)
		(1.05586592 0.36103566 0.00000000)
		(1.07262570 0.35173160 0.00000000)
		(1.08938547 0.34314062 0.00000000)
		(1.10614525 0.33530404 0.00000000)
		(1.12290503 0.32825955 0.00000000)
		(1.13966480 0.32204102 0.00000000)
		(1.15642458 0.31667836 0.00000000)
		(1.17318436 0.31219737 0.00000000)
		(1.18994413 0.30861959 0.00000000)
		(1.20670391 0.30596224 0.00000000)
		(1.22346369 0.30423808 0.00000000)
		(1.24022346 0.30345542 0.00000000)
		(1.25698324 0.30361802 0.00000000)
		(1.27374302 0.30472510 0.00000000)
		(1.29050279 0.30677132 0.00000000)
		(1.30726257 0.30974686 0.00000000)
		(1.32402235 0.31363739 0.00000000)
		(1.34078212 0.31842422 0.00000000)
		(1.35754190 0.32408431 0.00000000)
		(1.37430168 0.33059045 0.00000000)
		(1.39106145 0.33791134 0.00000000)
		(1.40782123 0.34601179 0.00000000)
		(1.42458101 0.35485281 0.00000000)
		(1.44134078 0.36439191 0.00000000)
		(1.45810056 0.37458320 0.00000000)
		(1.47486034 0.38537766 0.00000000)
		(1.49162011 0.39672339 0.00000000)
		(1.50837989 0.40856582 0.00000000)
		(1.52513966 0.42084798 0.00000000)
		(1.54189944 0.43351082 0.00000000)
		(1.55865922 0.44649343 0.00000000)
		(1.57541899 0.45973338 0.00000000)
		(1.59217877 0.47316698 0.00000000)
		(1.60893855 0.48672963 0.00000000)
		(1.62569832 0.50035611 0.00000000)
		(1.64245810 0.51398087 0.00000000)
		(1.65921788 0.52753839 0.00000000)
		(1.67597765 0.54096347 0.00000000)
		(1.69273743 0.55419154 0.00000000)
		(1.70949721 0.56715898 0.00000000)
		(1.72625698 0.57980343 0.00000000)
		(1.74301676 0.59206408 0.00000000)
		(1.75977654 0.60388195 0.00000000)
		(1.77653631 0.61520022 0.00000000)
		(1.79329609 0.62596444 0.00000000)
		(1.81005587 0.63612285 0.00000000)
		(1.82681564 0.64562660 0.00000000)
		(1.84357542 0.65442997 0.00000000)
		(1.86033520 0.66249063 0.00000000)
		(1.87709497 0.66976981 0.00000000)
		(1.89385475 0.67623250 0.00000000)
		(1.91061453 0.68184762 0.00000000)
		(1.92737430 0.68658817 0.00000000)
		(1.94413408 0.69043134 0.00000000)
		(1.96089385 0.69335865 0.00000000)
		(1.97765363 0.69535603 0.00000000)
		(1.99441341 0.69641387 0.00000000)
		(2.01117318 0.69652708 0.00000000)
		(2.02793296 0.69569512 0.00000000)
		(2.04469274 0.69392198 0.00000000)
		(2.06145251 0.69121619 0.00000000)
		(2.07821229 0.68759078 0.00000000)
		(2.09497207 0.68306317 0.00000000)
		(2.11173184 0.67765514 0.00000000)
		(2.12849162 0.67139270 0.00000000)
		(2.14525140 0.66430596 0.00000000)
		(2.16201117 0.65642901 0.00000000)
		(2.17877095 0.64779974 0.00000000)
		(2.19553073 0.63845964 0.00000000)
		(2.21229050 0.62845364 0.00000000)
		(2.22905028 0.61782985 0.00000000)
		(2.24581006 0.60663938 0.00000000)
		(2.26256983 0.59493603 0.00000000)
		(2.27932961 0.58277610 0.00000000)
		(2.29608939 0.57021807 0.00000000)
		(2.31284916 0.55732234 0.00000000)
		(2.32960894 0.54415092 0.00000000)
		(2.34636872 0.53076716 0.00000000)
		(2.36312849 0.51723543 0.00000000)
		(2.37988827 0.50362080 0.00000000)
		(2.39664804 0.48998877 0.00000000)
		(2.41340782 0.47640488 0.00000000)
		(2.43016760 0.46293447 0.00000000)
		(2.44692737 0.44964232 0.00000000)
		(2.46368715 0.43659236 0.00000000)