/*--------------------------------*- C++ -*----------------------------------*\\
/*--------------------------------*- C++ -*----------------------------------*\\
| =========                 |                                                 |
| \\\\      /  F ield         | OpenFOAM: The Open Source CFD Toolbox           |
|  \\\\    /   O peration     | Version:  v2012                                 |
|   \\\\  /    A nd           | Website:  www.openfoam.com                      |
|    \\\\/     M anipulation  |                                                 |
\\*---------------------------------------------------------------------------*/
FoamFile
{
    version     2.0;
    format      ascii;
    class       dictionary;
    object      blockMeshDict;
}
// * * * * * * * * * * * * * * * * * * * * * * * * * * * * * * * * * * * * * //

scale   0.01;

xmin -1;
xmax 5;
ymin 0;
ymax 0.5;
zmin 0;
zmax 0.1;

vertices
(
    (-1.00000000 -0.12585419 0.00000000)
    (4.00000000 0.00222905 0.00000000)
    (4.00000000 0.50222905 0.00000000)
    (-1.00000000 0.37414581 0.00000000)
    (-1.00000000 -0.12585419 0.10000000)
    (4.00000000 0.00222905 0.10000000)
    (4.00000000 0.50222905 0.10000000)
    (-1.00000000 0.37414581 0.10000000)
);

blocks
(
    hex (0 1 2 3 4 5 6 7) (200 20 1) simpleGrading (1 1 1)
);

edges
(
	polyLine 0 1
	(
		(-1.00000000 -0.12585419 0.00000000)
		(-0.98000000 -0.12585419 0.00000000)
		(-0.96000000 -0.12585419 0.00000000)
		(-0.94000000 -0.12585419 0.00000000)
		(-0.92000000 -0.12585419 0.00000000)
		(-0.90000000 -0.12585419 0.00000000)
		(-0.88000000 -0.12585419 0.00000000)
		(-0.86000000 -0.12585419 0.00000000)
		(-0.84000000 -0.12585419 0.00000000)
		(-0.82000000 -0.12585419 0.00000000)
		(-0.80000000 -0.12585419 0.00000000)
		(-0.78000000 -0.12585419 0.00000000)
		(-0.76000000 -0.12585419 0.00000000)
		(-0.74000000 -0.12585419 0.00000000)
		(-0.72000000 -0.12585419 0.00000000)
		(-0.70000000 -0.12585419 0.00000000)
		(-0.68000000 -0.12585419 0.00000000)
		(-0.66000000 -0.12585419 0.00000000)
		(-0.64000000 -0.12585419 0.00000000)
		(-0.62000000 -0.12585419 0.00000000)
		(-0.60000000 -0.12585419 0.00000000)
		(-0.58000000 -0.12585419 0.00000000)
		(-0.56000000 -0.12585419 0.00000000)
		(-0.54000000 -0.12585419 0.00000000)
		(-0.52000000 -0.12585419 0.00000000)
		(-0.50000000 -0.12585419 0.00000000)
		(-0.48000000 -0.12585419 0.00000000)
		(-0.46000000 -0.12585419 0.00000000)
		(-0.44000000 -0.12585419 0.00000000)
		(-0.42000000 -0.12585419 0.00000000)
		(-0.40000000 -0.12585419 0.00000000)
		(-0.38000000 -0.12585419 0.00000000)
		(-0.36000000 -0.12585419 0.00000000)
		(-0.34000000 -0.12585419 0.00000000)
		(-0.32000000 -0.12585419 0.00000000)
		(-0.30000000 -0.12585419 0.00000000)
		(-0.28000000 -0.12585419 0.00000000)
		(-0.26000000 -0.12585419 0.00000000)
		(-0.24000000 -0.12585419 0.00000000)
		(-0.22000000 -0.12585419 0.00000000)
		(-0.20000000 -0.12585419 0.00000000)
		(-0.18000000 -0.12585419 0.00000000)
		(-0.16000000 -0.12585419 0.00000000)
		(-0.14000000 -0.12585419 0.00000000)
		(-0.12000000 -0.12585419 0.00000000)
		(-0.10000000 -0.12585419 0.00000000)
		(-0.08162011 -0.12663185 0.00000000)
		(-0.06324022 -0.12896482 0.00000000)
		(-0.04486034 -0.13285311 0.00000000)
		(-0.02648045 -0.13829671 0.00000000)
		(-0.00810056 -0.14529562 0.00000000)
		(0.01027933 -0.15384985 0.00000000)
		(0.02865922 -0.16395939 0.00000000)
		(0.04703911 -0.17562424 0.00000000)
		(0.06541899 -0.18884441 0.00000000)
		(0.08379888 -0.20361989 0.00000000)
		(0.10055866 -0.21518075 0.00000000)
		(0.11731844 -0.22519311 0.00000000)
		(0.13407821 -0.23358489 0.00000000)
		(0.15083799 -0.24029573 0.00000000)
		(0.16759777 -0.24527732 0.00000000)
		(0.18435754 -0.24849382 0.00000000)
		(0.20111732 -0.24992208 0.00000000)
		(0.21787709 -0.24955181 0.00000000)
		(0.23463687 -0.24738569 0.00000000)
		(0.25139665 -0.24343930 0.00000000)
		(0.26815642 -0.23774105 0.00000000)
		(0.28491620 -0.23033193 0.00000000)
		(0.30167598 -0.22126527 0.00000000)
		(0.31843575 -0.21060632 0.00000000)
		(0.33519553 -0.19843177 0.00000000)
		(0.35195531 -0.18482925 0.00000000)
		(0.36871508 -0.16989663 0.00000000)
		(0.38547486 -0.15374138 0.00000000)
		(0.40223464 -0.13647977 0.00000000)
		(0.41899441 -0.11823599 0.00000000)
		(0.43575419 -0.09914136 0.00000000)
		(0.45251397 -0.07933327 0.00000000)
		(0.46927374 -0.05895427 0.00000000)
		(0.48603352 -0.03815102 0.00000000)
		(0.50279330 -0.01707322 0.00000000)
		(0.51955307 0.00412744 0.00000000)
		(0.53631285 0.02529840 0.00000000)
		(0.55307263 0.04628731 0.00000000)
		(0.56983240 0.06694311 0.00000000)
		(0.58659218 0.08711717 0.00000000)
		(0.60335196 0.10666431 0.00000000)
		(0.62011173 0.12544386 0.00000000)
		(0.63687151 0.14332068 0.00000000)
		(0.65363128 0.16016611 0.00000000)
		(0.67039106 0.17585893 0.00000000)
		(0.68715084 0.19028622 0.00000000)
		(0.70391061 0.20334415 0.00000000)
		(0.72067039 0.21493874 0.00000000)
		(0.73743017 0.22498657 0.00000000)
		(0.75418994 0.23341532 0.00000000)
		(0.77094972 0.24016434 0.00000000)
		(0.78770950 0.24518506 0.00000000)
		(0.80446927 0.24844135 0.00000000)
		(0.82122905 0.24990978 0.00000000)
		(0.83798883 0.24957977 0.00000000)
		(0.85474860 0.24745371 0.00000000)
		(0.87150838 0.24354689 0.00000000)
		(0.88826816 0.23788743 0.00000000)
		(0.90502793 0.23051605 0.00000000)
		(0.92178771 0.22148581 0.00000000)
		(0.93854749 0.21086168 0.00000000)
		(0.95530726 0.19872012 0.00000000)
		(0.97206704 0.18514851 0.00000000)
		(0.98882682 0.17024452 0.00000000)
		(1.00558659 0.15411538 0.00000000)
		(1.02234637 0.13687719 0.00000000)
		(1.03910615 0.11865398 0.00000000)
		(1.05586592 0.09957690 0.00000000)
		(1.07262570 0.07978323 0.00000000)
		(1.08938547 0.05941541 0.00000000)
		(1.10614525 0.03862003 0.00000000)
		(1.12290503 0.01754672 0.00000000)
		(1.13966480 -0.00365286 0.00000000)
		(1.15642458 -0.02482616 0.00000000)
		(1.17318436 -0.04582079 0.00000000)
		(1.18994413 -0.06648569 0.00000000)
		(1.20670391 -0.08667213 0.00000000)
		(1.22346369 -0.10623485 0.00000000)
		(1.24022346 -0.12503308 0.00000000)
		(1.25698324 -0.14293152 0.00000000)
		(1.27374302 -0.15980138 0.00000000)
		(1.29050279 -0.17552126 0.00000000)
		(1.30726257 -0.18997804 0.00000000)
		(1.32402235 -0.20306767 0.00000000)
		(1.34078212 -0.21469595 0.00000000)
		(1.35754190 -0.22477922 0.00000000)
		(1.37430168 -0.23324491 0.00000000)
		(1.39106145 -0.24003208 0.00000000)
		(1.40782123 -0.24509192 0.00000000)
		(1.42458101 -0.24838798 0.00000000)
		(1.44134078 -0.24989657 0.00000000)
		(1.45810056 -0.24960683 0.00000000)
		(1.47486034 -0.24752083 0.00000000)
		(1.49162011 -0.24365359 0.00000000)
		(1.50837989 -0.23803295 0.00000000)
		(1.52513966 -0.23069934 0.00000000)
		(1.54189944 -0.22170554 0.00000000)
		(1.55865922 -0.21111628 0.00000000)
		(1.57541899 -0.19900776 0.00000000)
		(1.59217877 -0.18546711 0.00000000)
		(1.60893855 -0.17059179 0.00000000)
		(1.62569832 -0.15448883 0.00000000)
		(1.64245810 -0.13727412 0.00000000)
		(1.65921788 -0.11907154 0.00000000)
		(1.67597765 -0.10001208 0.00000000)
		(1.69273743 -0.08023290 0.00000000)
		(1.70949721 -0.05987634 0.00000000)
		(1.72625698 -0.03908890 0.00000000)
		(1.74301676 -0.01802015 0.00000000)
		(1.75977654 0.00317827 0.00000000)
		(1.77653631 0.02435382 0.00000000)
		(1.79329609 0.04535411 0.00000000)
		(1.81005587 0.06602803 0.00000000)
		(1.82681564 0.08622678 0.00000000)
		(1.84357542 0.10580501 0.00000000)
		(1.86033520 0.12462184 0.00000000)
		(1.87709497 0.14254185 0.00000000)
		(1.89385475 0.15943608 0.00000000)
		(1.91061453 0.17518296 0.00000000)
		(1.92737430 0.18966917 0.00000000)
		(1.94413408 0.20279045 0.00000000)
		(1.96089385 0.21445239 0.00000000)
		(1.97765363 0.22457106 0.00000000)
		(1.99441341 0.23307365 0.00000000)
		(2.01117318 0.23989896 0.00000000)
		(2.02793296 0.24499789 0.00000000)
		(2.04469274 0.24833372 0.00000000)
		(2.06145251 0.24988247 0.00000000)
		(2.07821229 0.24963299 0.00000000)
		(2.09497207 0.24758706 0.00000000)
		(2.11173184 0.24375942 0.00000000)
		(2.12849162 0.23817761 0.00000000)
		(2.14525140 0.23088179 0.00000000)
		(2.16201117 0.22192448 0.00000000)
		(2.17877095 0.21137012 0.00000000)
		(2.19553073 0.19929468 0.00000000)
		(2.21229050 0.18578504 0.00000000)
		(2.22905028 0.17093844 0.00000000)
		(2.24581006 0.15486171 0.00000000)
		(2.26256983 0.13767055 0.00000000)
		(2.27932961 0.11948866 0.00000000)
		(2.29608939 0.10044690 0.00000000)
		(2.31284916 0.08068229 0.00000000)
		(2.32960894 0.06033706 0.00000000)
		(2.34636872 0.03955762 0.00000000)
		(2.36312849 0.01849352 0.00000000)
		(2.37988827 -0.00270367 0.00000000)
		(2.39664804 -0.02388140 0.00000000)
		(2.41340782 -0.04488727 0.00000000)
		(2.43016760 -0.06557012 0.00000000)
		(2.44692737 -0.08578111 0.00000000)
		(2.46368715 -0.10537479 0.00000000)
		(2.48044693 -0.12421016 0.00000000)
		(2.49720670 -0.14215167 0.00000000)
		(2.51396648 -0.15907021 0.00000000)
		(2.53072626 -0.17484403 0.00000000)
		(2.54748603 -0.18935962 0.00000000)
		(2.56424581 -0.20251251 0.00000000)
		(2.58100559 -0.21420806 0.00000000)
		(2.59776536 -0.22436210 0.00000000)
		(2.61452514 -0.23290155 0.00000000)
		(2.63128492 -0.23976498 0.00000000)
		(2.64804469 -0.24490297 0.00000000)
		(2.66480447 -0.24827857 0.00000000)
		(2.68156425 -0.24986747 0.00000000)
		(2.69832402 -0.24965825 0.00000000)
		(2.71508380 -0.24765240 0.00000000)
		(2.73184358 -0.24386437 0.00000000)
		(2.74860335 -0.23832141 0.00000000)
		(2.76536313 -0.23106341 0.00000000)
		(2.78212291 -0.22214261 0.00000000)
		(2.79888268 -0.21162320 0.00000000)
		(2.81564246 -0.19958088 0.00000000)
		(2.83240223 -0.18610231 0.00000000)
		(2.84916201 -0.17128448 0.00000000)
		(2.86592179 -0.15523404 0.00000000)
		(2.88268156 -0.13806649 0.00000000)
		(2.89944134 -0.11990536 0.00000000)
		(2.91620112 -0.10088136 0.00000000)
		(2.93296089 -0.08113138 0.00000000)
		(2.95166480 -0.06529290 0.00000000)
		(2.97036872 -0.05112162 0.00000000)
		(2.98907263 -0.03861756 0.00000000)
		(3.00777654 -0.02778070 0.00000000)
		(3.02648045 -0.01861105 0.00000000)
		(3.04518436 -0.01110862 0.00000000)
		(3.06388827 -0.00527338 0.00000000)
		(3.08259218 -0.00110536 0.00000000)
		(3.10129609 0.00139545 0.00000000)
		(3.12000000 0.00222905 0.00000000)
		(3.14000000 0.00222905 0.00000000)
		(3.16000000 0.00222905 0.00000000)
		(3.18000000 0.00222905 0.00000000)
		(3.20000000 0.00222905 0.00000000)
		(3.22000000 0.00222905 0.00000000)
		(3.24000000 0.00222905 0.00000000)
		(3.26000000 0.00222905 0.00000000)
		(3.28000000 0.00222905 0.00000000)
		(3.30000000 0.00222905 0.00000000)
		(3.32000000 0.00222905 0.00000000)
		(3.34000000 0.00222905 0.00000000)
		(3.36000000 0.00222905 0.00000000)
		(3.38000000 0.00222905 0.00000000)
		(3.40000000 0.00222905 0.00000000)
		(3.42000000 0.00222905 0.00000000)
		(3.44000000 0.00222905 0.00000000)
		(3.46000000 0.00222905 0.00000000)
		(3.48000000 0.00222905 0.00000000)
		(3.50000000 0.00222905 0.00000000)
		(3.52000000 0.00222905 0.00000000)
		(3.54000000 0.00222905 0.00000000)
		(3.56000000 0.00222905 0.00000000)
		(3.58000000 0.00222905 0.00000000)
		(3.60000000 0.00222905 0.00000000)
		(3.62000000 0.00222905 0.00000000)
		(3.64000000 0.00222905 0.00000000)
		(3.66000000 0.00222905 0.00000000)
		(3.68000000 0.00222905 0.00000000)
		(3.70000000 0.00222905 0.00000000)
		(3.72000000 0.00222905 0.00000000)
		(3.74000000 0.00222905 0.00000000)
		(3.76000000 0.00222905 0.00000000)
		(3.78000000 0.00222905 0.00000000)
		(3.80000000 0.00222905 0.00000000)
		(3.82000000 0.00222905 0.00000000)
		(3.84000000 0.00222905 0.00000000)
		(3.86000000 0.00222905 0.00000000)
		(3.88000000 0.00222905 0.00000000)
		(3.90000000 0.00222905 0.00000000)
		(3.92000000 0.00222905 0.00000000)
		(3.94000000 0.00222905 0.00000000)
		(3.96000000 0.00222905 0.00000000)
		(3.98000000 0.00222905 0.00000000)
		(4.00000000 0.00222905 0.00000000)
	)
	polyLine 4 5
	(
		(-1.00000000 -0.12585419 0.10000000)
		(-0.98000000 -0.12585419 0.10000000)
		(-0.96000000 -0.12585419 0.10000000)
		(-0.94000000 -0.12585419 0.10000000)
		(-0.92000000 -0.12585419 0.10000000)
		(-0.90000000 -0.12585419 0.10000000)
		(-0.88000000 -0.12585419 0.10000000)
		(-0.86000000 -0.12585419 0.10000000)
		(-0.84000000 -0.12585419 0.10000000)
		(-0.82000000 -0.12585419 0.10000000)
		(-0.80000000 -0.12585419 0.10000000)
		(-0.78000000 -0.12585419 0.10000000)
		(-0.76000000 -0.12585419 0.10000000)
		(-0.74000000 -0.12585419 0.10000000)
		(-0.72000000 -0.12585419 0.10000000)
		(-0.70000000 -0.12585419 0.10000000)
		(-0.68000000 -0.12585419 0.10000000)
		(-0.66000000 -0.12585419 0.10000000)
		(-0.64000000 -0.12585419 0.10000000)
		(-0.62000000 -0.12585419 0.10000000)
		(-0.60000000 -0.12585419 0.10000000)
		(-0.58000000 -0.12585419 0.10000000)
		(-0.56000000 -0.12585419 0.10000000)
		(-0.54000000 -0.12585419 0.10000000)
		(-0.52000000 -0.12585419 0.10000000)
		(-0.50000000 -0.12585419 0.10000000)
		(-0.48000000 -0.12585419 0.10000000)
		(-0.46000000 -0.12585419 0.10000000)
		(-0.44000000 -0.12585419 0.10000000)
		(-0.42000000 -0.12585419 0.10000000)
		(-0.40000000 -0.12585419 0.10000000)
		(-0.38000000 -0.12585419 0.10000000)
		(-0.36000000 -0.12585419 0.10000000)
		(-0.34000000 -0.12585419 0.10000000)
		(-0.32000000 -0.12585419 0.10000000)
		(-0.30000000 -0.12585419 0.10000000)
		(-0.28000000 -0.12585419 0.10000000)
		(-0.26000000 -0.12585419 0.10000000)
		(-0.24000000 -0.12585419 0.10000000)
		(-0.22000000 -0.12585419 0.10000000)
		(-0.20000000 -0.12585419 0.10000000)
		(-0.18000000 -0.12585419 0.10000000)
		(-0.16000000 -0.12585419 0.10000000)
		(-0.14000000 -0.12585419 0.10000000)
		(-0.12000000 -0.12585419 0.10000000)
		(-0.10000000 -0.12585419 0.10000000)
		(-0.08162011 -0.12663185 0.10000000)
		(-0.06324022 -0.12896482 0.10000000)
		(-0.04486034 -0.13285311 0.10000000)
		(-0.02648045 -0.13829671 0.10000000)
		(-0.00810056 -0.14529562 0.10000000)
		(0.01027933 -0.15384985 0.10000000)
		(0.02865922 -0.16395939 0.10000000)
		(0.04703911 -0.17562424 0.10000000)
		(0.06541899 -0.18884441 0.10000000)
		(0.08379888 -0.20361989 0.10000000)
		(0.10055866 -0.21518075 0.10000000)
		(0.11731844 -0.22519311 0.10000000)
		(0.13407821 -0.23358489 0.10000000)
		(0.15083799 -0.24029573 0.10000000)
		(0.16759777 -0.24527732 0.10000000)
		(0.18435754 -0.24849382 0.10000000)
		(0.20111732 -0.24992208 0.10000000)
		(0.21787709 -0.24955181 0.10000000)
		(0.23463687 -0.24738569 0.10000000)
		(0.25139665 -0.24343930 0.10000000)
		(0.26815642 -0.23774105 0.10000000)
		(0.28491620 -0.23033193 0.10000000)
		(0.30167598 -0.22126527 0.10000000)
		(0.31843575 -0.21060632 0.10000000)
		(0.33519553 -0.19843177 0.10000000)
		(0.35195531 -0.18482925 0.10000000)
		(0.36871508 -0.16989663 0.10000000)
		(0.38547486 -0.15374138 0.10000000)
		(0.40223464 -0.13647977 0.10000000)
		(0.41899441 -0.11823599 0.10000000)
		(0.43575419 -0.09914136 0.10000000)
		(0.45251397 -0.07933327 0.10000000)
		(0.46927374 -0.05895427 0.10000000)
		(0.48603352 -0.03815102 0.10000000)
		(0.50279330 -0.01707322 0.10000000)
		(0.51955307 0.00412744 0.10000000)
		(0.53631285 0.02529840 0.10000000)
		(0.55307263 0.04628731 0.10000000)
		(0.56983240 0.06694311 0.10000000)
		(0.58659218 0.08711717 0.10000000)
		(0.60335196 0.10666431 0.10000000)
		(0.62011173 0.12544386 0.10000000)
		(0.63687151 0.14332068 0.10000000)
		(0.65363128 0.16016611 0.10000000)
		(0.67039106 0.17585893 0.10000000)
		(0.68715084 0.19028622 0.10000000)
		(0.70391061 0.20334415 0.10000000)
		(0.72067039 0.21493874 0.10000000)
		(0.73743017 0.22498657 0.10000000)
		(0.75418994 0.23341532 0.10000000)
		(0.77094972 0.24016434 0.10000000)
		(0.78770950 0.24518506 0.10000000)
		(0.80446927 0.24844135 0.10000000)
		(0.82122905 0.24990978 0.10000000)
		(0.83798883 0.24957977 0.10000000)
		(0.85474860 0.24745371 0.10000000)
		(0.87150838 0.24354689 0.10000000)
		(0.88826816 0.23788743 0.10000000)
		(0.90502793 0.23051605 0.10000000)
		(0.92178771 0.22148581 0.10000000)
		(0.93854749 0.21086168 0.10000000)
		(0.95530726 0.19872012 0.10000000)
		(0.97206704 0.18514851 0.10000000)
		(0.98882682 0.17024452 0.10000000)
		(1.00558659 0.15411538 0.10000000)
		(1.02234637 0.13687719 0.10000000)
		(1.03910615 0.11865398 0.10000000)
		(1.05586592 0.09957690 0.10000000)
		(1.07262570 0.07978323 0.10000000)
		(1.08938547 0.05941541 0.10000000)
		(1.10614525 0.03862003 0.10000000)
		(1.12290503 0.01754672 0.10000000)
		(1.13966480 -0.00365286 0.10000000)
		(1.15642458 -0.02482616 0.10000000)
		(1.17318436 -0.04582079 0.10000000)
		(1.18994413 -0.06648569 0.10000000)
		(1.20670391 -0.08667213 0.10000000)
		(1.22346369 -0.10623485 0.10000000)
		(1.24022346 -0.12503308 0.10000000)
		(1.25698324 -0.14293152 0.10000000)
		(1.27374302 -0.15980138 0.10000000)
		(1.29050279 -0.17552126 0.10000000)
		(1.30726257 -0.18997804 0.10000000)
		(1.32402235 -0.20306767 0.10000000)
		(1.34078212 -0.21469595 0.10000000)
		(1.35754190 -0.22477922 0.10000000)
		(1.37430168 -0.23324491 0.10000000)
		(1.39106145 -0.24003208 0.10000000)
		(1.40782123 -0.24509192 0.10000000)
		(1.42458101 -0.24838798 0.10000000)
		(1.44134078 -0.24989657 0.10000000)
		(1.45810056 -0.24960683 0.10000000)
		(1.47486034 -0.24752083 0.10000000)
		(1.49162011 -0.24365359 0.10000000)
		(1.50837989 -0.23803295 0.10000000)
		(1.52513966 -0.23069934 0.10000000)
		(1.54189944 -0.22170554 0.10000000)
		(1.55865922 -0.21111628 0.10000000)
		(1.57541899 -0.19900776 0.10000000)
		(1.59217877 -0.18546711 0.10000000)
		(1.60893855 -0.17059179 0.10000000)
		(1.62569832 -0.15448883 0.10000000)
		(1.64245810 -0.13727412 0.10000000)
		(1.65921788 -0.11907154 0.10000000)
		(1.67597765 -0.10001208 0.10000000)
		(1.69273743 -0.08023290 0.10000000)
		(1.70949721 -0.05987634 0.10000000)
		(1.72625698 -0.03908890 0.10000000)
		(1.74301676 -0.01802015 0.10000000)
		(1.75977654 0.00317827 0.10000000)
		(1.77653631 0.02435382 0.10000000)
		(1.79329609 0.04535411 0.10000000)
		(1.81005587 0.06602803 0.10000000)
		(1.82681564 0.08622678 0.10000000)
		(1.84357542 0.10580501 0.10000000)
		(1.86033520 0.12462184 0.10000000)
		(1.87709497 0.14254185 0.10000000)
		(1.89385475 0.15943608 0.10000000)
		(1.91061453 0.17518296 0.10000000)
		(1.92737430 0.18966917 0.10000000)
		(1.94413408 0.20279045 0.10000000)
		(1.96089385 0.21445239 0.10000000)
		(1.97765363 0.22457106 0.10000000)
		(1.99441341 0.23307365 0.10000000)
		(2.01117318 0.23989896 0.10000000)
		(2.02793296 0.24499789 0.10000000)
		(2.04469274 0.24833372 0.10000000)
		(2.06145251 0.24988247 0.10000000)
		(2.07821229 0.24963299 0.10000000)
		(2.09497207 0.24758706 0.10000000)
		(2.11173184 0.24375942 0.10000000)
		(2.12849162 0.23817761 0.10000000)
		(2.14525140 0.23088179 0.10000000)
		(2.16201117 0.22192448 0.10000000)
		(2.17877095 0.21137012 0.10000000)
		(2.19553073 0.19929468 0.10000000)
		(2.21229050 0.18578504 0.10000000)
		(2.22905028 0.17093844 0.10000000)
		(2.24581006 0.15486171 0.10000000)
		(2.26256983 0.13767055 0.10000000)
		(2.27932961 0.11948866 0.10000000)
		(2.29608939 0.10044690 0.10000000)
		(2.31284916 0.08068229 0.10000000)
		(2.32960894 0.06033706 0.10000000)
		(2.34636872 0.03955762 0.10000000)
		(2.36312849 0.01849352 0.10000000)
		(2.37988827 -0.00270367 0.10000000)
		(2.39664804 -0.02388140 0.10000000)
		(2.41340782 -0.04488727 0.10000000)
		(2.43016760 -0.06557012 0.10000000)
		(2.44692737 -0.08578111 0.10000000)
		(2.46368715 -0.10537479 0.10000000)
		(2.48044693 -0.12421016 0.10000000)
		(2.49720670 -0.14215167 0.10000000)
		(2.51396648 -0.15907021 0.10000000)
		(2.53072626 -0.17484403 0.10000000)
		(2.54748603 -0.18935962 0.10000000)
		(2.56424581 -0.20251251 0.10000000)
		(2.58100559 -0.21420806 0.10000000)
		(2.59776536 -0.22436210 0.10000000)
		(2.61452514 -0.23290155 0.10000000)
		(2.63128492 -0.23976498 0.10000000)
		(2.64804469 -0.24490297 0.10000000)
		(2.66480447 -0.24827857 0.10000000)
		(2.68156425 -0.24986747 0.10000000)
		(2.69832402 -0.24965825 0.10000000)
		(2.71508380 -0.24765240 0.10000000)
		(2.73184358 -0.24386437 0.10000000)
		(2.74860335 -0.23832141 0.10000000)
		(2.76536313 -0.23106341 0.10000000)
		(2.78212291 -0.22214261 0.10000000)
		(2.79888268 -0.21162320 0.10000000)
		(2.81564246 -0.19958088 0.10000000)
		(2.83240223 -0.18610231 0.10000000)
		(2.84916201 -0.17128448 0.10000000)
		(2.86592179 -0.15523404 0.10000000)
		(2.88268156 -0.13806649 0.10000000)
		(2.89944134 -0.11990536 0.10000000)
		(2.91620112 -0.10088136 0.10000000)
		(2.93296089 -0.08113138 0.10000000)
		(2.95166480 -0.06529290 0.10000000)
		(2.97036872 -0.05112162 0.10000000)
		(2.98907263 -0.03861756 0.10000000)
		(3.00777654 -0.02778070 0.10000000)
		(3.02648045 -0.01861105 0.10000000)
		(3.04518436 -0.01110862 0.10000000)
		(3.06388827 -0.00527338 0.10000000)
		(3.08259218 -0.00110536 0.10000000)
		(3.10129609 0.00139545 0.10000000)
		(3.12000000 0.00222905 0.10000000)
		(3.14000000 0.00222905 0.10000000)
		(3.16000000 0.00222905 0.10000000)
		(3.18000000 0.00222905 0.10000000)
		(3.20000000 0.00222905 0.10000000)
		(3.22000000 0.00222905 0.10000000)
		(3.24000000 0.00222905 0.10000000)
		(3.26000000 0.00222905 0.10000000)
		(3.28000000 0.00222905 0.10000000)
		(3.30000000 0.00222905 0.10000000)
		(3.32000000 0.00222905 0.10000000)
		(3.34000000 0.00222905 0.10000000)
		(3.36000000 0.00222905 0.10000000)
		(3.38000000 0.00222905 0.10000000)
		(3.40000000 0.00222905 0.10000000)
		(3.42000000 0.00222905 0.10000000)
		(3.44000000 0.00222905 0.10000000)
		(3.46000000 0.00222905 0.10000000)
		(3.48000000 0.00222905 0.10000000)
		(3.50000000 0.00222905 0.10000000)
		(3.52000000 0.00222905 0.10000000)
		(3.54000000 0.00222905 0.10000000)
		(3.56000000 0.00222905 0.10000000)
		(3.58000000 0.00222905 0.10000000)
		(3.60000000 0.00222905 0.10000000)
		(3.62000000 0.00222905 0.10000000)
		(3.64000000 0.00222905 0.10000000)
		(3.66000000 0.00222905 0.10000000)
		(3.68000000 0.00222905 0.10000000)
		(3.70000000 0.00222905 0.10000000)
		(3.72000000 0.00222905 0.10000000)
		(3.74000000 0.00222905 0.10000000)
		(3.76000000 0.00222905 0.10000000)
		(3.78000000 0.00222905 0.10000000)
		(3.80000000 0.00222905 0.10000000)
		(3.82000000 0.00222905 0.10000000)
		(3.84000000 0.00222905 0.10000000)
		(3.86000000 0.00222905 0.10000000)
		(3.88000000 0.00222905 0.10000000)
		(3.90000000 0.00222905 0.10000000)
		(3.92000000 0.00222905 0.10000000)
		(3.94000000 0.00222905 0.10000000)
		(3.96000000 0.00222905 0.10000000)
		(3.98000000 0.00222905 0.10000000)
		(4.00000000 0.00222905 0.10000000)
	)
	polyLine 3 2
	(
		(-1.00000000 0.37414581 0.00000000)
		(-0.98000000 0.37556416 0.00000000)
		(-0.96000000 0.37698252 0.00000000)
		(-0.94000000 0.37840088 0.00000000)
		(-0.92000000 0.37981924 0.00000000)
		(-0.90000000 0.38123760 0.00000000)
		(-0.88000000 0.38265596 0.00000000)
		(-0.86000000 0.38407432 0.00000000)
		(-0.84000000 0.38549268 0.00000000)
		(-0.82000000 0.38691103 0.00000000)
		(-0.80000000 0.38832939 0.00000000)
		(-0.78000000 0.38974775 0.00000000)
		(-0.76000000 0.39116611 0.00000000)
		(-0.74000000 0.39258447 0.00000000)
		(-0.72000000 0.39400283 0.00000000)
		(-0.70000000 0.39542119 0.00000000)
		(-0.68000000 0.39683955 0.00000000)
		(-0.66000000 0.39825790 0.00000000)
		(-0.64000000 0.39967626 0.00000000)
		(-0.62000000 0.40109462 0.00000000)
		(-0.60000000 0.40251298 0.00000000)
		(-0.58000000 0.40393134 0.00000000)
		(-0.56000000 0.40534970 0.00000000)
		(-0.54000000 0.40676806 0.00000000)
		(-0.52000000 0.40818642 0.00000000)
		(-0.50000000 0.40960477 0.00000000)
		(-0.48000000 0.41102313 0.00000000)
		(-0.46000000 0.41244149 0.00000000)
		(-0.44000000 0.41385985 0.00000000)
		(-0.42000000 0.41527821 0.00000000)
		(-0.40000000 0.41669657 0.00000000)
		(-0.38000000 0.41811493 0.00000000)
		(-0.36000000 0.41953329 0.00000000)
		(-0.34000000 0.42095164 0.00000000)
		(-0.32000000 0.42237000 0.00000000)
		(-0.30000000 0.42378836 0.00000000)
		(-0.28000000 0.42520672 0.00000000)
		(-0.26000000 0.42662508 0.00000000)
		(-0.24000000 0.42804344 0.00000000)
		(-0.22000000 0.42946180 0.00000000)
		(-0.20000000 0.43088016 0.00000000)
		(-0.18000000 0.43229851 0.00000000)
		(-0.16000000 0.43371687 0.00000000)
		(-0.14000000 0.43513523 0.00000000)
		(-0.12000000 0.43655359 0.00000000)
		(-0.10000000 0.43797195 0.00000000)
		(-0.08162011 0.43919632 0.00000000)
		(-0.06324022 0.43950087 0.00000000)
		(-0.04486034 0.43888559 0.00000000)
		(-0.02648045 0.43735050 0.00000000)
		(-0.00810056 0.43489559 0.00000000)
		(0.01027933 0.43152085 0.00000000)
		(0.02865922 0.42722629 0.00000000)
		(0.04703911 0.42201191 0.00000000)
		(0.06541899 0.41587771 0.00000000)
		(0.08379888 0.40882369 0.00000000)
		(0.10055866 0.40364700 0.00000000)
		(0.11731844 0.39916370 0.00000000)
		(0.13407821 0.39540605 0.00000000)
		(0.15083799 0.39240109 0.00000000)
		(0.16759777 0.39017045 0.00000000)
		(0.18435754 0.38873018 0.00000000)
		(0.20111732 0.38809064 0.00000000)
		(0.21787709 0.38825643 0.00000000)
		(0.23463687 0.38922637 0.00000000)
		(0.25139665 0.39099347 0.00000000)
		(0.26815642 0.39354502 0.00000000)
		(0.28491620 0.39686265 0.00000000)
		(0.30167598 0.40092250 0.00000000)
		(0.31843575 0.40569533 0.00000000)
		(0.33519553 0.41114681 0.00000000)
		(0.35195531 0.41723771 0.00000000)
		(0.36871508 0.42392419 0.00000000)
		(0.38547486 0.43115814 0.00000000)
		(0.40223464 0.43888750 0.00000000)
		(0.41899441 0.44705664 0.00000000)
		(0.43575419 0.45560678 0.00000000)
		(0.45251397 0.46447639 0.00000000)
		(0.46927374 0.47360163 0.00000000)
		(0.48603352 0.48291685 0.00000000)
		(0.50279330 0.49235500 0.00000000)
		(0.51955307 0.50184817 0.00000000)
		(0.53631285 0.51132804 0.00000000)
		(0.55307263 0.52072639 0.00000000)
		(0.56983240 0.52997559 0.00000000)
		(0.58659218 0.53900907 0.00000000)
		(0.60335196 0.54776183 0.00000000)
		(0.62011173 0.55617088 0.00000000)
		(0.63687151 0.56417570 0.00000000)
		(0.65363128 0.57171870 0.00000000)
		(0.67039106 0.57874559 0.00000000)
		(0.68715084 0.58520580 0.00000000)
		(0.70391061 0.59105284 0.00000000)
		(0.72067039 0.59624463 0.00000000)
		(0.73743017 0.60074382 0.00000000)
		(0.75418994 0.60451802 0.00000000)
		(0.77094972 0.60754007 0.00000000)
		(0.78770950 0.60978824 0.00000000)
		(0.80446927 0.61124633 0.00000000)
		(0.82122905 0.61190385 0.00000000)
		(0.83798883 0.61175609 0.00000000)
		(0.85474860 0.61080408 0.00000000)
		(0.87150838 0.60905470 0.00000000)
		(0.88826816 0.60652052 0.00000000)
		(0.90502793 0.60321979 0.00000000)
		(0.92178771 0.59917625 0.00000000)
		(0.93854749 0.59441901 0.00000000)
		(0.95530726 0.58898230 0.00000000)
		(0.97206704 0.58290525 0.00000000)
		(0.98882682 0.57623158 0.00000000)
		(1.00558659 0.56900933 0.00000000)
		(1.02234637 0.56129046 0.00000000)
		(1.03910615 0.55313052 0.00000000)
		(1.05586592 0.54458825 0.00000000)
		(1.07262570 0.53572510 0.00000000)
		(1.08938547 0.52660486 0.00000000)
		(1.10614525 0.51729316 0.00000000)
		(1.12290503 0.50785702 0.00000000)
		(1.13966480 0.49836433 0.00000000)
		(1.15642458 0.48888342 0.00000000)
		(1.17318436 0.47948250 0.00000000)
		(1.18994413 0.47022924 0.00000000)
		(1.20670391 0.46119021 0.00000000)
		(1.22346369 0.45243047 0.00000000)
		(1.24022346 0.44401306 0.00000000)
		(1.25698324 0.43599855 0.00000000)
		(1.27374302 0.42844461 0.00000000)
		(1.29050279 0.42140561 0.00000000)
		(1.30726257 0.41493220 0.00000000)
		(1.32402235 0.40907097 0.00000000)
		(1.34078212 0.40386409 0.00000000)
		(1.35754190 0.39934903 0.00000000)
		(1.37430168 0.39555829 0.00000000)
		(1.39106145 0.39251915 0.00000000)
		(1.40782123 0.39025347 0.00000000)
		(1.42458101 0.38877757 0.00000000)
		(1.44134078 0.38810206 0.00000000)
		(1.45810056 0.38823180 0.00000000)
		(1.47486034 0.38916586 0.00000000)
		(1.49162011 0.39089752 0.00000000)
		(1.50837989 0.39341432 0.00000000)
		(1.52513966 0.39669814 0.00000000)
		(1.54189944 0.40072535 0.00000000)
		(1.55865922 0.40546698 0.00000000)
		(1.57541899 0.41088890 0.00000000)
		(1.59217877 0.41695209 0.00000000)
		(1.60893855 0.42361292 0.00000000)
		(1.62569832 0.43082345 0.00000000)
		(1.64245810 0.43853181 0.00000000)
		(1.65921788 0.44668250 0.00000000)
		(1.67597765 0.45521689 0.00000000)
		(1.69273743 0.46407355 0.00000000)
		(1.70949721 0.47318875 0.00000000)
		(1.72625698 0.48249689 0.00000000)
		(1.74301676 0.49193099 0.00000000)
		(1.75977654 0.50142316 0.00000000)
		(1.77653631 0.51090508 0.00000000)
		(1.79329609 0.52030853 0.00000000)
		(1.81005587 0.52956583 0.00000000)
		(1.82681564 0.53861037 0.00000000)
		(1.84357542 0.54737705 0.00000000)
		(1.86033520 0.55580280 0.00000000)
		(1.87709497 0.56382696 0.00000000)
		(1.89385475 0.57139181 0.00000000)
		(1.91061453 0.57844290 0.00000000)
		(1.92737430 0.58492949 0.00000000)
		(1.94413408 0.59080490 0.00000000)
		(1.96089385 0.59602685 0.00000000)
		(1.97765363 0.60055776 0.00000000)
		(1.99441341 0.60436502 0.00000000)
		(2.01117318 0.60742124 0.00000000)
		(2.02793296 0.60970442 0.00000000)
		(2.04469274 0.61119813 0.00000000)
		(2.06145251 0.61189163 0.00000000)
		(2.07821229 0.61177991 0.00000000)
		(2.09497207 0.61086380 0.00000000)
		(2.11173184 0.60914987 0.00000000)
		(2.12849162 0.60665046 0.00000000)
		(2.14525140 0.60338356 0.00000000)
		(2.16201117 0.59937268 0.00000000)
		(2.17877095 0.59464668 0.00000000)
		(2.19553073 0.58923958 0.00000000)
		(2.21229050 0.58319027 0.00000000)
		(2.22905028 0.57654231 0.00000000)
		(2.24581006 0.56934352 0.00000000)
		(2.26256983 0.56164571 0.00000000)
		(2.27932961 0.55350428 0.00000000)
		(2.29608939 0.54497781 0.00000000)
		(2.31284916 0.53612767 0.00000000)
		(2.32960894 0.52701755 0.00000000)
		(2.34636872 0.51771299 0.00000000)
		(2.36312849 0.50828097 0.00000000)
		(2.37988827 0.49878936 0.00000000)
		(2.39664804 0.48930646 0.00000000)
		(2.41340782 0.47990051 0.00000000)
		(2.43016760 0.47063921 0.00000000)
		(2.44692737 0.46158919 0.00000000)
		(2.46368715 0.45281559 0.00000000)
		(2.48044693 0.44438155 0.00000000)
		(2.49720670 0.43634775 0.00000000)