/*--------------------------------*- C++ -*----------------------------------*\\
/*--------------------------------*- C++ -*----------------------------------*\\
| =========                 |                                                 |
| \\\\      /  F ield         | OpenFOAM: The Open Source CFD Toolbox           |
|  \\\\    /   O peration     | Version:  v2012                                 |
|   \\\\  /    A nd           | Website:  www.openfoam.com                      |
|    \\\\/     M anipulation  |                                                 |
\\*---------------------------------------------------------------------------*/
FoamFile
{
    version     2.0;
    format      ascii;
    class       dictionary;
    object      blockMeshDict;
}
// * * * * * * * * * * * * * * * * * * * * * * * * * * * * * * * * * * * * * //

scale   0.01;

xmin -1;
xmax 5;
ymin 0;
ymax 0.5;
zmin 0;
zmax 0.1;

vertices
(
    (-1.00000000 -0.12249827 0.00000000)
    (4.00000000 -0.24870975 0.00000000)
    (4.00000000 0.25129025 0.00000000)
    (-1.00000000 0.37750173 0.00000000)
    (-1.00000000 -0.12249827 0.10000000)
    (4.00000000 -0.24870975 0.10000000)
    (4.00000000 0.25129025 0.10000000)
    (-1.00000000 0.37750173 0.10000000)
);

blocks
(
    hex (0 1 2 3 4 5 6 7) (200 20 1) simpleGrading (1 1 1)
);

edges
(
	polyLine 0 1
	(
		(-1.00000000 -0.12249827 0.00000000)
		(-0.98000000 -0.12249827 0.00000000)
		(-0.96000000 -0.12249827 0.00000000)
		(-0.94000000 -0.12249827 0.00000000)
		(-0.92000000 -0.12249827 0.00000000)
		(-0.90000000 -0.12249827 0.00000000)
		(-0.88000000 -0.12249827 0.00000000)
		(-0.86000000 -0.12249827 0.00000000)
		(-0.84000000 -0.12249827 0.00000000)
		(-0.82000000 -0.12249827 0.00000000)
		(-0.80000000 -0.12249827 0.00000000)
		(-0.78000000 -0.12249827 0.00000000)
		(-0.76000000 -0.12249827 0.00000000)
		(-0.74000000 -0.12249827 0.00000000)
		(-0.72000000 -0.12249827 0.00000000)
		(-0.70000000 -0.12249827 0.00000000)
		(-0.68000000 -0.12249827 0.00000000)
		(-0.66000000 -0.12249827 0.00000000)
		(-0.64000000 -0.12249827 0.00000000)
		(-0.62000000 -0.12249827 0.00000000)
		(-0.60000000 -0.12249827 0.00000000)
		(-0.58000000 -0.12249827 0.00000000)
		(-0.56000000 -0.12249827 0.00000000)
		(-0.54000000 -0.12249827 0.00000000)
		(-0.52000000 -0.12249827 0.00000000)
		(-0.50000000 -0.12249827 0.00000000)
		(-0.48000000 -0.12249827 0.00000000)
		(-0.46000000 -0.12249827 0.00000000)
		(-0.44000000 -0.12249827 0.00000000)
		(-0.42000000 -0.12249827 0.00000000)
		(-0.40000000 -0.12249827 0.00000000)
		(-0.38000000 -0.12249827 0.00000000)
		(-0.36000000 -0.12249827 0.00000000)
		(-0.34000000 -0.12249827 0.00000000)
		(-0.32000000 -0.12249827 0.00000000)
		(-0.30000000 -0.12249827 0.00000000)
		(-0.28000000 -0.12249827 0.00000000)
		(-0.26000000 -0.12249827 0.00000000)
		(-0.24000000 -0.12249827 0.00000000)
		(-0.22000000 -0.12249827 0.00000000)
		(-0.20000000 -0.12249827 0.00000000)
		(-0.18000000 -0.12249827 0.00000000)
		(-0.16000000 -0.12249827 0.00000000)
		(-0.14000000 -0.12249827 0.00000000)
		(-0.12000000 -0.12249827 0.00000000)
		(-0.10000000 -0.12249827 0.00000000)
		(-0.08162011 -0.12130402 0.00000000)
		(-0.06324022 -0.11772126 0.00000000)
		(-0.04486034 -0.11174999 0.00000000)
		(-0.02648045 -0.10339021 0.00000000)
		(-0.00810056 -0.09264193 0.00000000)
		(0.01027933 -0.07950513 0.00000000)
		(0.02865922 -0.06397983 0.00000000)
		(0.04703911 -0.04606602 0.00000000)
		(0.06541899 -0.02576370 0.00000000)
		(0.08379888 -0.00307288 0.00000000)
		(0.10055866 0.02188848 0.00000000)
		(0.11731844 0.04663133 0.00000000)
		(0.13407821 0.07090863 0.00000000)
		(0.15083799 0.09447804 0.00000000)
		(0.16759777 0.11710425 0.00000000)
		(0.18435754 0.13856137 0.00000000)
		(0.20111732 0.15863519 0.00000000)
		(0.21787709 0.17712531 0.00000000)
		(0.23463687 0.19384714 0.00000000)
		(0.25139665 0.20863374 0.00000000)
		(0.26815642 0.22133749 0.00000000)
		(0.28491620 0.23183156 0.00000000)
		(0.30167598 0.24001120 0.00000000)
		(0.31843575 0.24579473 0.00000000)
		(0.33519553 0.24912442 0.00000000)
		(0.35195531 0.24996703 0.00000000)
		(0.36871508 0.24831415 0.00000000)
		(0.38547486 0.24418228 0.00000000)
		(0.40223464 0.23761267 0.00000000)
		(0.41899441 0.22867090 0.00000000)
		(0.43575419 0.21744625 0.00000000)
		(0.45251397 0.20405077 0.00000000)
		(0.46927374 0.18861819 0.00000000)
		(0.48603352 0.17130258 0.00000000)
		(0.50279330 0.15227680 0.00000000)
		(0.51955307 0.13173081 0.00000000)
		(0.53631285 0.10986971 0.00000000)
		(0.55307263 0.08691175 0.00000000)
		(0.56983240 0.06308612 0.00000000)
		(0.58659218 0.03863069 0.00000000)
		(0.60335196 0.01378959 0.00000000)
		(0.62011173 -0.01118917 0.00000000)
		(0.63687151 -0.03605622 0.00000000)
		(0.65363128 -0.06056332 0.00000000)
		(0.67039106 -0.08446579 0.00000000)
		(0.68715084 -0.10752502 0.00000000)
		(0.70391061 -0.12951080 0.00000000)
		(0.72067039 -0.15020363 0.00000000)
		(0.73743017 -0.16939693 0.00000000)
		(0.75418994 -0.18689910 0.00000000)
		(0.77094972 -0.20253540 0.00000000)
		(0.78770950 -0.21614974 0.00000000)
		(0.80446927 -0.22760618 0.00000000)
		(0.82122905 -0.23679038 0.00000000)
		(0.83798883 -0.24361062 0.00000000)
		(0.85474860 -0.24799883 0.00000000)
		(0.87150838 -0.24991120 0.00000000)
		(0.88826816 -0.24932863 0.00000000)
		(0.90502793 -0.24625694 0.00000000)
		(0.92178771 -0.24072680 0.00000000)
		(0.93854749 -0.23279342 0.00000000)
		(0.95530726 -0.22253599 0.00000000)
		(0.97206704 -0.21005692 0.00000000)
		(0.98882682 -0.19548079 0.00000000)
		(1.00558659 -0.17895313 0.00000000)
		(1.02234637 -0.16063892 0.00000000)
		(1.03910615 -0.14072101 0.00000000)
		(1.05586592 -0.11939824 0.00000000)
		(1.07262570 -0.09688348 0.00000000)
		(1.08938547 -0.07340151 0.00000000)
		(1.10614525 -0.04918675 0.00000000)
		(1.12290503 -0.02448094 0.00000000)
		(1.13966480 0.00046926 0.00000000)
		(1.15642458 0.02541478 0.00000000)
		(1.17318436 0.05010658 0.00000000)
		(1.18994413 0.07429815 0.00000000)
		(1.20670391 0.09774798 0.00000000)
		(1.22346369 0.12022197 0.00000000)
		(1.24022346 0.14149574 0.00000000)
		(1.25698324 0.16135692 0.00000000)
		(1.27374302 0.17960723 0.00000000)
		(1.29050279 0.19606447 0.00000000)
		(1.30726257 0.21056434 0.00000000)
		(1.32402235 0.22296209 0.00000000)
		(1.34078212 0.23313394 0.00000000)
		(1.35754190 0.24097835 0.00000000)
		(1.37430168 0.24641700 0.00000000)
		(1.39106145 0.24939561 0.00000000)
		(1.40782123 0.24988442 0.00000000)
		(1.42458101 0.24787857 0.00000000)
		(1.44134078 0.24339808 0.00000000)
		(1.45810056 0.23648767 0.00000000)
		(1.47486034 0.22721634 0.00000000)
		(1.49162011 0.21567664 0.00000000)
		(1.50837989 0.20198378 0.00000000)
		(1.52513966 0.18627446 0.00000000)
		(1.54189944 0.16870551 0.00000000)
		(1.55865922 0.14945232 0.00000000)
		(1.57541899 0.12870711 0.00000000)
		(1.59217877 0.10667698 0.00000000)
		(1.60893855 0.08358186 0.00000000)
		(1.62569832 0.05965232 0.00000000)
		(1.64245810 0.03512725 0.00000000)
		(1.65921788 0.01025150 0.00000000)
		(1.67597765 -0.01472659 0.00000000)
		(1.69273743 -0.03955767 0.00000000)
		(1.70949721 -0.06399383 0.00000000)
		(1.72625698 -0.08779112 0.00000000)
		(1.74301676 -0.11071197 0.00000000)
		(1.75977654 -0.13252755 0.00000000)
		(1.77653631 -0.15302006 0.00000000)
		(1.79329609 -0.17198494 0.00000000)
		(1.81005587 -0.18923284 0.00000000)
		(1.82681564 -0.20459157 0.00000000)
		(1.84357542 -0.21790781 0.00000000)
		(1.86033520 -0.22904862 0.00000000)
		(1.87709497 -0.23790276 0.00000000)
		(1.89385475 -0.24438185 0.00000000)
		(1.91061453 -0.24842121 0.00000000)
		(1.92737430 -0.24998051 0.00000000)
		(1.94413408 -0.24904419 0.00000000)
		(1.96089385 -0.24562158 0.00000000)
		(1.97765363 -0.23974686 0.00000000)
		(1.99441341 -0.23147868 0.00000000)
		(2.01117318 -0.22089959 0.00000000)
		(2.02793296 -0.20811519 0.00000000)
		(2.04469274 -0.19325312 0.00000000)
		(2.06145251 -0.17646174 0.00000000)
		(2.07821229 -0.15790870 0.00000000)
		(2.09497207 -0.13777921 0.00000000)
		(2.11173184 -0.11627423 0.00000000)
		(2.12849162 -0.09360845 0.00000000)
		(2.14525140 -0.07000815 0.00000000)
		(2.16201117 -0.04570894 0.00000000)
		(2.17877095 -0.02095341 0.00000000)
		(2.19553073 0.00401131 0.00000000)
		(2.21229050 0.02893598 0.00000000)
		(2.22905028 0.05357178 0.00000000)
		(2.24581006 0.07767275 0.00000000)
		(2.26256983 0.10099830 0.00000000)
		(2.27932961 0.12331555 0.00000000)
		(2.29608939 0.14440170 0.00000000)
		(2.31284916 0.16404626 0.00000000)
		(2.32960894 0.18205309 0.00000000)
		(2.34636872 0.19824243 0.00000000)
		(2.36312849 0.21245266 0.00000000)
		(2.37988827 0.22454192 0.00000000)
		(2.39664804 0.23438951 0.00000000)
		(2.41340782 0.24189712 0.00000000)
		(2.43016760 0.24698981 0.00000000)
		(2.44692737 0.24961673 0.00000000)
		(2.46368715 0.24975165 0.00000000)
		(2.48044693 0.24739322 0.00000000)
		(2.49720670 0.24256500 0.00000000)
		(2.51396648 0.23531519 0.00000000)
		(2.53072626 0.22571616 0.00000000)
		(2.54748603 0.21386373 0.00000000)
		(2.56424581 0.19987625 0.00000000)
		(2.58100559 0.18389334 0.00000000)
		(2.59776536 0.16607457 0.00000000)
		(2.61452514 0.14659784 0.00000000)
		(2.63128492 0.12565757 0.00000000)
		(2.64804469 0.10346283 0.00000000)
		(2.66480447 0.08023519 0.00000000)
		(2.68156425 0.05620654 0.00000000)
		(2.69832402 0.03161677 0.00000000)
		(2.71508380 0.00671135 0.00000000)
		(2.73184358 -0.01826106 0.00000000)
		(2.74860335 -0.04305118 0.00000000)
		(2.76536313 -0.06741149 0.00000000)
		(2.78212291 -0.09109883 0.00000000)
		(2.79888268 -0.11387669 0.00000000)
		(2.81564246 -0.13551769 0.00000000)
		(2.83240223 -0.15580578 0.00000000)
		(2.84916201 -0.17453842 0.00000000)
		(2.86592179 -0.19152859 0.00000000)
		(2.88268156 -0.20660667 0.00000000)
		(2.89944134 -0.21962214 0.00000000)
		(2.91620112 -0.23044506 0.00000000)
		(2.93296089 -0.23896739 0.00000000)
		(2.95166480 -0.24081843 0.00000000)
		(2.97036872 -0.24247464 0.00000000)
		(2.98907263 -0.24393599 0.00000000)
		(3.00777654 -0.24520250 0.00000000)
		(3.02648045 -0.24627416 0.00000000)
		(3.04518436 -0.24715097 0.00000000)
		(3.06388827 -0.24783294 0.00000000)
		(3.08259218 -0.24832005 0.00000000)
		(3.10129609 -0.24861232 0.00000000)
		(3.12000000 -0.24870975 0.00000000)
		(3.14000000 -0.24870975 0.00000000)
		(3.16000000 -0.24870975 0.00000000)
		(3.18000000 -0.24870975 0.00000000)
		(3.20000000 -0.24870975 0.00000000)
		(3.22000000 -0.24870975 0.00000000)
		(3.24000000 -0.24870975 0.00000000)
		(3.26000000 -0.24870975 0.00000000)
		(3.28000000 -0.24870975 0.00000000)
		(3.30000000 -0.24870975 0.00000000)
		(3.32000000 -0.24870975 0.00000000)
		(3.34000000 -0.24870975 0.00000000)
		(3.36000000 -0.24870975 0.00000000)
		(3.38000000 -0.24870975 0.00000000)
		(3.40000000 -0.24870975 0.00000000)
		(3.42000000 -0.24870975 0.00000000)
		(3.44000000 -0.24870975 0.00000000)
		(3.46000000 -0.24870975 0.00000000)
		(3.48000000 -0.24870975 0.00000000)
		(3.50000000 -0.24870975 0.00000000)
		(3.52000000 -0.24870975 0.00000000)
		(3.54000000 -0.24870975 0.00000000)
		(3.56000000 -0.24870975 0.00000000)
		(3.58000000 -0.24870975 0.00000000)
		(3.60000000 -0.24870975 0.00000000)
		(3.62000000 -0.24870975 0.00000000)
		(3.64000000 -0.24870975 0.00000000)
		(3.66000000 -0.24870975 0.00000000)
		(3.68000000 -0.24870975 0.00000000)
		(3.70000000 -0.24870975 0.00000000)
		(3.72000000 -0.24870975 0.00000000)
		(3.74000000 -0.24870975 0.00000000)
		(3.76000000 -0.24870975 0.00000000)
		(3.78000000 -0.24870975 0.00000000)
		(3.80000000 -0.24870975 0.00000000)
		(3.82000000 -0.24870975 0.00000000)
		(3.84000000 -0.24870975 0.00000000)
		(3.86000000 -0.24870975 0.00000000)
		(3.88000000 -0.24870975 0.00000000)
		(3.90000000 -0.24870975 0.00000000)
		(3.92000000 -0.24870975 0.00000000)
		(3.94000000 -0.24870975 0.00000000)
		(3.96000000 -0.24870975 0.00000000)
		(3.98000000 -0.24870975 0.00000000)
		(4.00000000 -0.24870975 0.00000000)
	)
	polyLine 4 5
	(
		(-1.00000000 -0.12249827 0.10000000)
		(-0.98000000 -0.12249827 0.10000000)
		(-0.96000000 -0.12249827 0.10000000)
		(-0.94000000 -0.12249827 0.10000000)
		(-0.92000000 -0.12249827 0.10000000)
		(-0.90000000 -0.12249827 0.10000000)
		(-0.88000000 -0.12249827 0.10000000)
		(-0.86000000 -0.12249827 0.10000000)
		(-0.84000000 -0.12249827 0.10000000)
		(-0.82000000 -0.12249827 0.10000000)
		(-0.80000000 -0.12249827 0.10000000)
		(-0.78000000 -0.12249827 0.10000000)
		(-0.76000000 -0.12249827 0.10000000)
		(-0.74000000 -0.12249827 0.10000000)
		(-0.72000000 -0.12249827 0.10000000)
		(-0.70000000 -0.12249827 0.10000000)
		(-0.68000000 -0.12249827 0.10000000)
		(-0.66000000 -0.12249827 0.10000000)
		(-0.64000000 -0.12249827 0.10000000)
		(-0.62000000 -0.12249827 0.10000000)
		(-0.60000000 -0.12249827 0.10000000)
		(-0.58000000 -0.12249827 0.10000000)
		(-0.56000000 -0.12249827 0.10000000)
		(-0.54000000 -0.12249827 0.10000000)
		(-0.52000000 -0.12249827 0.10000000)
		(-0.50000000 -0.12249827 0.10000000)
		(-0.48000000 -0.12249827 0.10000000)
		(-0.46000000 -0.12249827 0.10000000)
		(-0.44000000 -0.12249827 0.10000000)
		(-0.42000000 -0.12249827 0.10000000)
		(-0.40000000 -0.12249827 0.10000000)
		(-0.38000000 -0.12249827 0.10000000)
		(-0.36000000 -0.12249827 0.10000000)
		(-0.34000000 -0.12249827 0.10000000)
		(-0.32000000 -0.12249827 0.10000000)
		(-0.30000000 -0.12249827 0.10000000)
		(-0.28000000 -0.12249827 0.10000000)
		(-0.26000000 -0.12249827 0.10000000)
		(-0.24000000 -0.12249827 0.10000000)
		(-0.22000000 -0.12249827 0.10000000)
		(-0.20000000 -0.12249827 0.10000000)
		(-0.18000000 -0.12249827 0.10000000)
		(-0.16000000 -0.12249827 0.10000000)
		(-0.14000000 -0.12249827 0.10000000)
		(-0.12000000 -0.12249827 0.10000000)
		(-0.10000000 -0.12249827 0.10000000)
		(-0.08162011 -0.12130402 0.10000000)
		(-0.06324022 -0.11772126 0.10000000)
		(-0.04486034 -0.11174999 0.10000000)
		(-0.02648045 -0.10339021 0.10000000)
		(-0.00810056 -0.09264193 0.10000000)
		(0.01027933 -0.07950513 0.10000000)
		(0.02865922 -0.06397983 0.10000000)
		(0.04703911 -0.04606602 0.10000000)
		(0.06541899 -0.02576370 0.10000000)
		(0.08379888 -0.00307288 0.10000000)
		(0.10055866 0.02188848 0.10000000)
		(0.11731844 0.04663133 0.10000000)
		(0.13407821 0.07090863 0.10000000)
		(0.15083799 0.09447804 0.10000000)
		(0.16759777 0.11710425 0.10000000)
		(0.18435754 0.13856137 0.10000000)
		(0.20111732 0.15863519 0.10000000)
		(0.21787709 0.17712531 0.10000000)
		(0.23463687 0.19384714 0.10000000)
		(0.25139665 0.20863374 0.10000000)
		(0.26815642 0.22133749 0.10000000)
		(0.28491620 0.23183156 0.10000000)
		(0.30167598 0.24001120 0.10000000)
		(0.31843575 0.24579473 0.10000000)
		(0.33519553 0.24912442 0.10000000)
		(0.35195531 0.24996703 0.10000000)
		(0.36871508 0.24831415 0.10000000)
		(0.38547486 0.24418228 0.10000000)
		(0.40223464 0.23761267 0.10000000)
		(0.41899441 0.22867090 0.10000000)
		(0.43575419 0.21744625 0.10000000)
		(0.45251397 0.20405077 0.10000000)
		(0.46927374 0.18861819 0.10000000)
		(0.48603352 0.17130258 0.10000000)
		(0.50279330 0.15227680 0.10000000)
		(0.51955307 0.13173081 0.10000000)
		(0.53631285 0.10986971 0.10000000)
		(0.55307263 0.08691175 0.10000000)
		(0.56983240 0.06308612 0.10000000)
		(0.58659218 0.03863069 0.10000000)
		(0.60335196 0.01378959 0.10000000)
		(0.62011173 -0.01118917 0.10000000)
		(0.63687151 -0.03605622 0.10000000)
		(0.65363128 -0.06056332 0.10000000)
		(0.67039106 -0.08446579 0.10000000)
		(0.68715084 -0.10752502 0.10000000)
		(0.70391061 -0.12951080 0.10000000)
		(0.72067039 -0.15020363 0.10000000)
		(0.73743017 -0.16939693 0.10000000)
		(0.75418994 -0.18689910 0.10000000)
		(0.77094972 -0.20253540 0.10000000)
		(0.78770950 -0.21614974 0.10000000)
		(0.80446927 -0.22760618 0.10000000)
		(0.82122905 -0.23679038 0.10000000)
		(0.83798883 -0.24361062 0.10000000)
		(0.85474860 -0.24799883 0.10000000)
		(0.87150838 -0.24991120 0.10000000)
		(0.88826816 -0.24932863 0.10000000)
		(0.90502793 -0.24625694 0.10000000)
		(0.92178771 -0.24072680 0.10000000)
		(0.93854749 -0.23279342 0.10000000)
		(0.95530726 -0.22253599 0.10000000)
		(0.97206704 -0.21005692 0.10000000)
		(0.98882682 -0.19548079 0.10000000)
		(1.00558659 -0.17895313 0.10000000)
		(1.02234637 -0.16063892 0.10000000)
		(1.03910615 -0.14072101 0.10000000)
		(1.05586592 -0.11939824 0.10000000)
		(1.07262570 -0.09688348 0.10000000)
		(1.08938547 -0.07340151 0.10000000)
		(1.10614525 -0.04918675 0.10000000)
		(1.12290503 -0.02448094 0.10000000)
		(1.13966480 0.00046926 0.10000000)
		(1.15642458 0.02541478 0.10000000)
		(1.17318436 0.05010658 0.10000000)
		(1.18994413 0.07429815 0.10000000)
		(1.20670391 0.09774798 0.10000000)
		(1.22346369 0.12022197 0.10000000)
		(1.24022346 0.14149574 0.10000000)
		(1.25698324 0.16135692 0.10000000)
		(1.27374302 0.17960723 0.10000000)
		(1.29050279 0.19606447 0.10000000)
		(1.30726257 0.21056434 0.10000000)
		(1.32402235 0.22296209 0.10000000)
		(1.34078212 0.23313394 0.10000000)
		(1.35754190 0.24097835 0.10000000)
		(1.37430168 0.24641700 0.10000000)
		(1.39106145 0.24939561 0.10000000)
		(1.40782123 0.24988442 0.10000000)
		(1.42458101 0.24787857 0.10000000)
		(1.44134078 0.24339808 0.10000000)
		(1.45810056 0.23648767 0.10000000)
		(1.47486034 0.22721634 0.10000000)
		(1.49162011 0.21567664 0.10000000)
		(1.50837989 0.20198378 0.10000000)
		(1.52513966 0.18627446 0.10000000)
		(1.54189944 0.16870551 0.10000000)
		(1.55865922 0.14945232 0.10000000)
		(1.57541899 0.12870711 0.10000000)
		(1.59217877 0.10667698 0.10000000)
		(1.60893855 0.08358186 0.10000000)
		(1.62569832 0.05965232 0.10000000)
		(1.64245810 0.03512725 0.10000000)
		(1.65921788 0.01025150 0.10000000)
		(1.67597765 -0.01472659 0.10000000)
		(1.69273743 -0.03955767 0.10000000)
		(1.70949721 -0.06399383 0.10000000)
		(1.72625698 -0.08779112 0.10000000)
		(1.74301676 -0.11071197 0.10000000)
		(1.75977654 -0.13252755 0.10000000)
		(1.77653631 -0.15302006 0.10000000)
		(1.79329609 -0.17198494 0.10000000)
		(1.81005587 -0.18923284 0.10000000)
		(1.82681564 -0.20459157 0.10000000)
		(1.84357542 -0.21790781 0.10000000)
		(1.86033520 -0.22904862 0.10000000)
		(1.87709497 -0.23790276 0.10000000)
		(1.89385475 -0.24438185 0.10000000)
		(1.91061453 -0.24842121 0.10000000)
		(1.92737430 -0.24998051 0.10000000)
		(1.94413408 -0.24904419 0.10000000)
		(1.96089385 -0.24562158 0.10000000)
		(1.97765363 -0.23974686 0.10000000)
		(1.99441341 -0.23147868 0.10000000)
		(2.01117318 -0.22089959 0.10000000)
		(2.02793296 -0.20811519 0.10000000)
		(2.04469274 -0.19325312 0.10000000)
		(2.06145251 -0.17646174 0.10000000)
		(2.07821229 -0.15790870 0.10000000)
		(2.09497207 -0.13777921 0.10000000)
		(2.11173184 -0.11627423 0.10000000)
		(2.12849162 -0.09360845 0.10000000)
		(2.14525140 -0.07000815 0.10000000)
		(2.16201117 -0.04570894 0.10000000)
		(2.17877095 -0.02095341 0.10000000)
		(2.19553073 0.00401131 0.10000000)
		(2.21229050 0.02893598 0.10000000)
		(2.22905028 0.05357178 0.10000000)
		(2.24581006 0.07767275 0.10000000)
		(2.26256983 0.10099830 0.10000000)
		(2.27932961 0.12331555 0.10000000)
		(2.29608939 0.14440170 0.10000000)
		(2.31284916 0.16404626 0.10000000)
		(2.32960894 0.18205309 0.10000000)
		(2.34636872 0.19824243 0.10000000)
		(2.36312849 0.21245266 0.10000000)
		(2.37988827 0.22454192 0.10000000)
		(2.39664804 0.23438951 0.10000000)
		(2.41340782 0.24189712 0.10000000)
		(2.43016760 0.24698981 0.10000000)
		(2.44692737 0.24961673 0.10000000)
		(2.46368715 0.24975165 0.10000000)
		(2.48044693 0.24739322 0.10000000)
		(2.49720670 0.24256500 0.10000000)
		(2.51396648 0.23531519 0.10000000)
		(2.53072626 0.22571616 0.10000000)
		(2.54748603 0.21386373 0.10000000)
		(2.56424581 0.19987625 0.10000000)
		(2.58100559 0.18389334 0.10000000)
		(2.59776536 0.16607457 0.10000000)
		(2.61452514 0.14659784 0.10000000)
		(2.63128492 0.12565757 0.10000000)
		(2.64804469 0.10346283 0.10000000)
		(2.66480447 0.08023519 0.10000000)
		(2.68156425 0.05620654 0.10000000)
		(2.69832402 0.03161677 0.10000000)
		(2.71508380 0.00671135 0.10000000)
		(2.73184358 -0.01826106 0.10000000)
		(2.74860335 -0.04305118 0.10000000)
		(2.76536313 -0.06741149 0.10000000)
		(2.78212291 -0.09109883 0.10000000)
		(2.79888268 -0.11387669 0.10000000)
		(2.81564246 -0.13551769 0.10000000)
		(2.83240223 -0.15580578 0.10000000)
		(2.84916201 -0.17453842 0.10000000)
		(2.86592179 -0.19152859 0.10000000)
		(2.88268156 -0.20660667 0.10000000)
		(2.89944134 -0.21962214 0.10000000)
		(2.91620112 -0.23044506 0.10000000)
		(2.93296089 -0.23896739 0.10000000)
		(2.95166480 -0.24081843 0.10000000)
		(2.97036872 -0.24247464 0.10000000)
		(2.98907263 -0.24393599 0.10000000)
		(3.00777654 -0.24520250 0.10000000)
		(3.02648045 -0.24627416 0.10000000)
		(3.04518436 -0.24715097 0.10000000)
		(3.06388827 -0.24783294 0.10000000)
		(3.08259218 -0.24832005 0.10000000)
		(3.10129609 -0.24861232 0.10000000)
		(3.12000000 -0.24870975 0.10000000)
		(3.14000000 -0.24870975 0.10000000)
		(3.16000000 -0.24870975 0.10000000)
		(3.18000000 -0.24870975 0.10000000)
		(3.20000000 -0.24870975 0.10000000)
		(3.22000000 -0.24870975 0.10000000)
		(3.24000000 -0.24870975 0.10000000)
		(3.26000000 -0.24870975 0.10000000)
		(3.28000000 -0.24870975 0.10000000)
		(3.30000000 -0.24870975 0.10000000)
		(3.32000000 -0.24870975 0.10000000)
		(3.34000000 -0.24870975 0.10000000)
		(3.36000000 -0.24870975 0.10000000)
		(3.38000000 -0.24870975 0.10000000)
		(3.40000000 -0.24870975 0.10000000)
		(3.42000000 -0.24870975 0.10000000)
		(3.44000000 -0.24870975 0.10000000)
		(3.46000000 -0.24870975 0.10000000)
		(3.48000000 -0.24870975 0.10000000)
		(3.50000000 -0.24870975 0.10000000)
		(3.52000000 -0.24870975 0.10000000)
		(3.54000000 -0.24870975 0.10000000)
		(3.56000000 -0.24870975 0.10000000)
		(3.58000000 -0.24870975 0.10000000)
		(3.60000000 -0.24870975 0.10000000)
		(3.62000000 -0.24870975 0.10000000)
		(3.64000000 -0.24870975 0.10000000)
		(3.66000000 -0.24870975 0.10000000)
		(3.68000000 -0.24870975 0.10000000)
		(3.70000000 -0.24870975 0.10000000)
		(3.72000000 -0.24870975 0.10000000)
		(3.74000000 -0.24870975 0.10000000)
		(3.76000000 -0.24870975 0.10000000)
		(3.78000000 -0.24870975 0.10000000)
		(3.80000000 -0.24870975 0.10000000)
		(3.82000000 -0.24870975 0.10000000)
		(3.84000000 -0.24870975 0.10000000)
		(3.86000000 -0.24870975 0.10000000)
		(3.88000000 -0.24870975 0.10000000)
		(3.90000000 -0.24870975 0.10000000)
		(3.92000000 -0.24870975 0.10000000)
		(3.94000000 -0.24870975 0.10000000)
		(3.96000000 -0.24870975 0.10000000)
		(3.98000000 -0.24870975 0.10000000)
		(4.00000000 -0.24870975 0.10000000)
	)
	polyLine 3 2
	(
		(-1.00000000 0.37750173 0.00000000)
		(-0.98000000 0.37607288 0.00000000)
		(-0.96000000 0.37464404 0.00000000)
		(-0.94000000 0.37321519 0.00000000)
		(-0.92000000 0.37178635 0.00000000)
		(-0.90000000 0.37035750 0.00000000)
		(-0.88000000 0.36892866 0.00000000)
		(-0.86000000 0.36749981 0.00000000)
		(-0.84000000 0.36607097 0.00000000)
		(-0.82000000 0.36464212 0.00000000)
		(-0.80000000 0.36321328 0.00000000)
		(-0.78000000 0.36178444 0.00000000)
		(-0.76000000 0.36035559 0.00000000)
		(-0.74000000 0.35892675 0.00000000)
		(-0.72000000 0.35749790 0.00000000)
		(-0.70000000 0.35606906 0.00000000)
		(-0.68000000 0.35464021 0.00000000)
		(-0.66000000 0.35321137 0.00000000)
		(-0.64000000 0.35178252 0.00000000)
		(-0.62000000 0.35035368 0.00000000)
		(-0.60000000 0.34892484 0.00000000)
		(-0.58000000 0.34749599 0.00000000)
		(-0.56000000 0.34606715 0.00000000)
		(-0.54000000 0.34463830 0.00000000)
		(-0.52000000 0.34320946 0.00000000)
		(-0.50000000 0.34178061 0.00000000)
		(-0.48000000 0.34035177 0.00000000)
		(-0.46000000 0.33892292 0.00000000)
		(-0.44000000 0.33749408 0.00000000)
		(-0.42000000 0.33606523 0.00000000)
		(-0.40000000 0.33463639 0.00000000)
		(-0.38000000 0.33320755 0.00000000)
		(-0.36000000 0.33177870 0.00000000)
		(-0.34000000 0.33034986 0.00000000)
		(-0.32000000 0.32892101 0.00000000)
		(-0.30000000 0.32749217 0.00000000)
		(-0.28000000 0.32606332 0.00000000)
		(-0.26000000 0.32463448 0.00000000)
		(-0.24000000 0.32320563 0.00000000)
		(-0.22000000 0.32177679 0.00000000)
		(-0.20000000 0.32034794 0.00000000)
		(-0.18000000 0.31891910 0.00000000)
		(-0.16000000 0.31749026 0.00000000)
		(-0.14000000 0.31606141 0.00000000)
		(-0.12000000 0.31463257 0.00000000)
		(-0.10000000 0.31320372 0.00000000)
		(-0.08162011 0.31094858 0.00000000)
		(-0.06324022 0.31323830 0.00000000)
		(-0.04486034 0.32007287 0.00000000)
		(-0.02648045 0.33145230 0.00000000)
		(-0.00810056 0.34737658 0.00000000)
		(0.01027933 0.36784572 0.00000000)
		(0.02865922 0.39285971 0.00000000)
		(0.04703911 0.42241856 0.00000000)
		(0.06541899 0.45652227 0.00000000)
		(0.08379888 0.49517083 0.00000000)
		(0.10055866 0.53439876 0.00000000)
		(0.11731844 0.57328327 0.00000000)
		(0.13407821 0.61143617 0.00000000)
		(0.15083799 0.64847658 0.00000000)
		(0.16759777 0.68403470 0.00000000)
		(0.18435754 0.71775555 0.00000000)
		(0.20111732 0.74930248 0.00000000)
		(0.21787709 0.77836056 0.00000000)
		(0.23463687 0.80463968 0.00000000)
		(0.25139665 0.82787750 0.00000000)
		(0.26815642 0.84784202 0.00000000)
		(0.28491620 0.86433394 0.00000000)
		(0.30167598 0.87718860 0.00000000)
		(0.31843575 0.88627769 0.00000000)
		(0.33519553 0.89151045 0.00000000)
		(0.35195531 0.89283466 0.00000000)
		(0.36871508 0.89023708 0.00000000)
		(0.38547486 0.88374366 0.00000000)
		(0.40223464 0.87341921 0.00000000)
		(0.41899441 0.85936681 0.00000000)
		(0.43575419 0.84172675 0.00000000)
		(0.45251397 0.82067514 0.00000000)
		(0.46927374 0.79642213 0.00000000)
		(0.48603352 0.76920986 0.00000000)
		(0.50279330 0.73930998 0.00000000)
		(0.51955307 0.70702101 0.00000000)
		(0.53631285 0.67266529 0.00000000)
		(0.55307263 0.63658580 0.00000000)
		(0.56983240 0.59914273 0.00000000)
		(0.58659218 0.56070990 0.00000000)
		(0.60335196 0.52167098 0.00000000)
		(0.62011173 0.48241571 0.00000000)
		(0.63687151 0.44333600 0.00000000)
		(0.65363128 0.40482197 0.00000000)
		(0.67039106 0.36725814 0.00000000)
		(0.68715084 0.33101950 0.00000000)
		(0.70391061 0.29646785 0.00000000)
		(0.72067039 0.26394811 0.00000000)
		(0.73743017 0.23378495 0.00000000)
		(0.75418994 0.20627949 0.00000000)
		(0.77094972 0.18170632 0.00000000)
		(0.78770950 0.16031078 0.00000000)
		(0.80446927 0.14230644 0.00000000)
		(0.82122905 0.12787307 0.00000000)
		(0.83798883 0.11715474 0.00000000)
		(0.85474860 0.11025847 0.00000000)
		(0.87150838 0.10725309 0.00000000)
		(0.88826816 0.10816863 0.00000000)
		(0.90502793 0.11299592 0.00000000)
		(0.92178771 0.12168679 0.00000000)
		(0.93854749 0.13415447 0.00000000)
		(0.95530726 0.15027449 0.00000000)
		(0.97206704 0.16988592 0.00000000)
		(0.98882682 0.19279297 0.00000000)
		(1.00558659 0.21876696 0.00000000)
		(1.02234637 0.24754857 0.00000000)
		(1.03910615 0.27885048 0.00000000)
		(1.05586592 0.31236020 0.00000000)
		(1.07262570 0.34774317 0.00000000)
		(1.08938547 0.38464616 0.00000000)
		(1.10614525 0.42270077 0.00000000)
		(1.12290503 0.46152708 0.00000000)
		(1.13966480 0.50073747 0.00000000)
		(1.15642458 0.53994050 0.00000000)
		(1.17318436 0.57874479 0.00000000)
		(1.18994413 0.61676295 0.00000000)
		(1.20670391 0.65361544 0.00000000)
		(1.22346369 0.68893433 0.00000000)
		(1.24022346 0.72236704 0.00000000)
		(1.25698324 0.75357980 0.00000000)
		(1.27374302 0.78226100 0.00000000)
		(1.29050279 0.80812430 0.00000000)
		(1.30726257 0.83091152 0.00000000)
		(1.32402235 0.85039514 0.00000000)
		(1.34078212 0.86638068 0.00000000)
		(1.35754190 0.87870853 0.00000000)
		(1.37430168 0.88725562 0.00000000)
		(1.39106145 0.89193663 0.00000000)
		(1.40782123 0.89270483 0.00000000)
		(1.42458101 0.88955254 0.00000000)
		(1.44134078 0.88251124 0.00000000)
		(1.45810056 0.87165122 0.00000000)
		(1.47486034 0.85708089 0.00000000)
		(1.49162011 0.83894573 0.00000000)
		(1.50837989 0.81742678 0.00000000)
		(1.52513966 0.79273886 0.00000000)
		(1.54189944 0.76512845 0.00000000)
		(1.55865922 0.73487118 0.00000000)
		(1.57541899 0.70226913 0.00000000)
		(1.59217877 0.66764777 0.00000000)
		(1.60893855 0.63135273 0.00000000)
		(1.62569832 0.59374636 0.00000000)
		(1.64245810 0.55520409 0.00000000)
		(1.65921788 0.51611071 0.00000000)
		(1.67597765 0.47685648 0.00000000)
		(1.69273743 0.43783331 0.00000000)
		(1.70949721 0.39943076 0.00000000)
		(1.72625698 0.36203223 0.00000000)
		(1.74301676 0.32601106 0.00000000)
		(1.75977654 0.29172688 0.00000000)
		(1.77653631 0.25952195 0.00000000)
		(1.79329609 0.22971778 0.00000000)
		(1.81005587 0.20261191 0.00000000)
		(1.82681564 0.17847496 0.00000000)
		(1.84357542 0.15754788 0.00000000)
		(1.86033520 0.14003960 0.00000000)
		(1.87709497 0.12612490 0.00000000)
		(1.89385475 0.11594271 0.00000000)
		(1.91061453 0.10959467 0.00000000)
		(1.92737430 0.10714416 0.00000000)
		(1.94413408 0.10861564 0.00000000)
		(1.96089385 0.11399442 0.00000000)
		(1.97765363 0.12322681 0.00000000)
		(1.99441341 0.13622063 0.00000000)
		(2.01117318 0.15284617 0.00000000)
		(2.02793296 0.17293744 0.00000000)
		(2.04469274 0.19629387 0.00000000)
		(2.06145251 0.22268228 0.00000000)
		(2.07821229 0.25183924 0.00000000)
		(2.09497207 0.28347366 0.00000000)
		(2.11173184 0.31726972 0.00000000)
		(2.12849162 0.35289003 0.00000000)
		(2.14525140 0.38997898 0.00000000)
		(2.16201117 0.42816630 0.00000000)
		(2.17877095 0.46707076 0.00000000)
		(2.19553073 0.50630396 0.00000000)
		(2.21229050 0.54547422 0.00000000)
		(2.22905028 0.58419051 0.00000000)
		(2.24581006 0.62206629 0.00000000)
		(2.26256983 0.65872346 0.00000000)
		(2.27932961 0.69379604 0.00000000)
		(2.29608939 0.72693390 0.00000000)
		(2.31284916 0.75780621 0.00000000)
		(2.32960894 0.78610478 0.00000000)
		(2.34636872 0.81154707 0.00000000)
		(2.36312849 0.83387910 0.00000000)
		(2.37988827 0.85287793 0.00000000)
		(2.39664804 0.86835387 0.00000000)
		(2.41340782 0.88015243 0.00000000)
		(2.43016760 0.88815581 0.00000000)
		(2.44692737 0.89228413 0.00000000)
		(2.46368715 0.89249617 0.00000000)
		(2.48044693 0.88878980 0.00000000)