/*--------------------------------*- C++ -*----------------------------------*\\
/*--------------------------------*- C++ -*----------------------------------*\\
| =========                 |                                                 |
| \\\\      /  F ield         | OpenFOAM: The Open Source CFD Toolbox           |
|  \\\\    /   O peration     | Version:  v2012                                 |
|   \\\\  /    A nd           | Website:  www.openfoam.com                      |
|    \\\\/     M anipulation  |                                                 |
\\*---------------------------------------------------------------------------*/
FoamFile
{
    version     2.0;
    format      ascii;
    class       dictionary;
    object      blockMeshDict;
}
// * * * * * * * * * * * * * * * * * * * * * * * * * * * * * * * * * * * * * //

scale   0.01;

xmin -1;
xmax 5;
ymin 0;
ymax 0.5;
zmin 0;
zmax 0.1;

vertices
(
    (-1.00000000 -0.24210323 0.00000000)
    (4.00000000 0.19751390 0.00000000)
    (4.00000000 0.69751390 0.00000000)
    (-1.00000000 0.25789677 0.00000000)
    (-1.00000000 -0.24210323 0.10000000)
    (4.00000000 0.19751390 0.10000000)
    (4.00000000 0.69751390 0.10000000)
    (-1.00000000 0.25789677 0.10000000)
);

blocks
(
    hex (0 1 2 3 4 5 6 7) (200 20 1) simpleGrading (1 1 1)
);

edges
(
	polyLine 0 1
	(
		(-1.00000000 -0.24210323 0.00000000)
		(-0.98000000 -0.24210323 0.00000000)
		(-0.96000000 -0.24210323 0.00000000)
		(-0.94000000 -0.24210323 0.00000000)
		(-0.92000000 -0.24210323 0.00000000)
		(-0.90000000 -0.24210323 0.00000000)
		(-0.88000000 -0.24210323 0.00000000)
		(-0.86000000 -0.24210323 0.00000000)
		(-0.84000000 -0.24210323 0.00000000)
		(-0.82000000 -0.24210323 0.00000000)
		(-0.80000000 -0.24210323 0.00000000)
		(-0.78000000 -0.24210323 0.00000000)
		(-0.76000000 -0.24210323 0.00000000)
		(-0.74000000 -0.24210323 0.00000000)
		(-0.72000000 -0.24210323 0.00000000)
		(-0.70000000 -0.24210323 0.00000000)
		(-0.68000000 -0.24210323 0.00000000)
		(-0.66000000 -0.24210323 0.00000000)
		(-0.64000000 -0.24210323 0.00000000)
		(-0.62000000 -0.24210323 0.00000000)
		(-0.60000000 -0.24210323 0.00000000)
		(-0.58000000 -0.24210323 0.00000000)
		(-0.56000000 -0.24210323 0.00000000)
		(-0.54000000 -0.24210323 0.00000000)
		(-0.52000000 -0.24210323 0.00000000)
		(-0.50000000 -0.24210323 0.00000000)
		(-0.48000000 -0.24210323 0.00000000)
		(-0.46000000 -0.24210323 0.00000000)
		(-0.44000000 -0.24210323 0.00000000)
		(-0.42000000 -0.24210323 0.00000000)
		(-0.40000000 -0.24210323 0.00000000)
		(-0.38000000 -0.24210323 0.00000000)
		(-0.36000000 -0.24210323 0.00000000)
		(-0.34000000 -0.24210323 0.00000000)
		(-0.32000000 -0.24210323 0.00000000)
		(-0.30000000 -0.24210323 0.00000000)
		(-0.28000000 -0.24210323 0.00000000)
		(-0.26000000 -0.24210323 0.00000000)
		(-0.24000000 -0.24210323 0.00000000)
		(-0.22000000 -0.24210323 0.00000000)
		(-0.20000000 -0.24210323 0.00000000)
		(-0.18000000 -0.24210323 0.00000000)
		(-0.16000000 -0.24210323 0.00000000)
		(-0.14000000 -0.24210323 0.00000000)
		(-0.12000000 -0.24210323 0.00000000)
		(-0.10000000 -0.24210323 0.00000000)
		(-0.08162011 -0.24164901 0.00000000)
		(-0.06324022 -0.24028636 0.00000000)
		(-0.04486034 -0.23801528 0.00000000)
		(-0.02648045 -0.23483576 0.00000000)
		(-0.00810056 -0.23074781 0.00000000)
		(0.01027933 -0.22575143 0.00000000)
		(0.02865922 -0.21984661 0.00000000)
		(0.04703911 -0.21303336 0.00000000)
		(0.06541899 -0.20531168 0.00000000)
		(0.08379888 -0.19668156 0.00000000)
		(0.10055866 -0.18326807 0.00000000)
		(0.11731844 -0.16860309 0.00000000)
		(0.13407821 -0.15278678 0.00000000)
		(0.15083799 -0.13592712 0.00000000)
		(0.16759777 -0.11813926 0.00000000)
		(0.18435754 -0.09954466 0.00000000)
		(0.20111732 -0.08027030 0.00000000)
		(0.21787709 -0.06044780 0.00000000)
		(0.23463687 -0.04021251 0.00000000)
		(0.25139665 -0.01970263 0.00000000)
		(0.26815642 0.00094180 0.00000000)
		(0.28491620 0.02157979 0.00000000)
		(0.30167598 0.04207043 0.00000000)
		(0.31843575 0.06227377 0.00000000)
		(0.33519553 0.08205187 0.00000000)
		(0.35195531 0.10126966 0.00000000)
		(0.36871508 0.11979591 0.00000000)
		(0.38547486 0.13750410 0.00000000)
		(0.40223464 0.15427333 0.00000000)
		(0.41899441 0.16998906 0.00000000)
		(0.43575419 0.18454399 0.00000000)
		(0.45251397 0.19783872 0.00000000)
		(0.46927374 0.20978247 0.00000000)
		(0.48603352 0.22029367 0.00000000)
		(0.50279330 0.22930056 0.00000000)
		(0.51955307 0.23674161 0.00000000)
		(0.53631285 0.24256603 0.00000000)
		(0.55307263 0.24673404 0.00000000)
		(0.56983240 0.24921717 0.00000000)
		(0.58659218 0.24999847 0.00000000)
		(0.60335196 0.24907260 0.00000000)
		(0.62011173 0.24644589 0.00000000)
		(0.63687151 0.24213627 0.00000000)
		(0.65363128 0.23617317 0.00000000)
		(0.67039106 0.22859732 0.00000000)
		(0.68715084 0.21946044 0.00000000)
		(0.70391061 0.20882493 0.00000000)
		(0.72067039 0.19676342 0.00000000)
		(0.73743017 0.18335826 0.00000000)
		(0.75418994 0.16870101 0.00000000)
		(0.77094972 0.15289175 0.00000000)
		(0.78770950 0.13603843 0.00000000)
		(0.80446927 0.11825614 0.00000000)
		(0.82122905 0.09966632 0.00000000)
		(0.83798883 0.08039591 0.00000000)
		(0.85474860 0.06057650 0.00000000)
		(0.87150838 0.04034343 0.00000000)
		(0.88826816 0.01983486 0.00000000)
		(0.90502793 -0.00080915 0.00000000)
		(0.92178771 -0.02144764 0.00000000)
		(0.93854749 -0.04193967 0.00000000)
		(0.95530726 -0.06214530 0.00000000)
		(0.97206704 -0.08192656 0.00000000)
		(0.98882682 -0.10114837 0.00000000)
		(1.00558659 -0.11967947 0.00000000)
		(1.02234637 -0.13739331 0.00000000)
		(1.03910615 -0.15416893 0.00000000)
		(1.05586592 -0.16989177 0.00000000)
		(1.07262570 -0.18445448 0.00000000)
		(1.08938547 -0.19775760 0.00000000)
		(1.10614525 -0.20971029 0.00000000)
		(1.12290503 -0.22023093 0.00000000)
		(1.13966480 -0.22924768 0.00000000)
		(1.15642458 -0.23669896 0.00000000)
		(1.17318436 -0.24253389 0.00000000)
		(1.18994413 -0.24671263 0.00000000)
		(1.20670391 -0.24920664 0.00000000)
		(1.22346369 -0.24999890 0.00000000)
		(1.24022346 -0.24908398 0.00000000)
		(1.25698324 -0.24646814 0.00000000)
		(1.27374302 -0.24216924 0.00000000)
		(1.29050279 -0.23621664 0.00000000)
		(1.30726257 -0.22865099 0.00000000)
		(1.32402235 -0.21952394 0.00000000)
		(1.34078212 -0.20889783 0.00000000)
		(1.35754190 -0.19684522 0.00000000)
		(1.37430168 -0.18344841 0.00000000)
		(1.39106145 -0.16879888 0.00000000)
		(1.40782123 -0.15299667 0.00000000)
		(1.42458101 -0.13614970 0.00000000)
		(1.44134078 -0.11837300 0.00000000)
		(1.45810056 -0.09978796 0.00000000)
		(1.47486034 -0.08052150 0.00000000)
		(1.49162011 -0.06070518 0.00000000)
		(1.50837989 -0.04047433 0.00000000)
		(1.52513966 -0.01996708 0.00000000)
		(1.54189944 0.00067651 0.00000000)
		(1.55865922 0.02131548 0.00000000)
		(1.57541899 0.04180889 0.00000000)
		(1.59217877 0.06201681 0.00000000)
		(1.60893855 0.08180123 0.00000000)
		(1.62569832 0.10102705 0.00000000)
		(1.64245810 0.11956299 0.00000000)
		(1.65921788 0.13728247 0.00000000)
		(1.67597765 0.15406448 0.00000000)
		(1.69273743 0.16979444 0.00000000)
		(1.70949721 0.18436492 0.00000000)
		(1.72625698 0.19767642 0.00000000)
		(1.74301676 0.20963805 0.00000000)
		(1.75977654 0.22016812 0.00000000)
		(1.77653631 0.22919473 0.00000000)
		(1.79329609 0.23665623 0.00000000)
		(1.81005587 0.24250168 0.00000000)
		(1.82681564 0.24669116 0.00000000)
		(1.84357542 0.24919605 0.00000000)
		(1.86033520 0.24999926 0.00000000)
		(1.87709497 0.24909529 0.00000000)
		(1.89385475 0.24649032 0.00000000)
		(1.91061453 0.24220215 0.00000000)
		(1.92737430 0.23626005 0.00000000)
		(1.94413408 0.22870459 0.00000000)
		(1.96089385 0.21958738 0.00000000)
		(1.97765363 0.20897067 0.00000000)
		(1.99441341 0.19692696 0.00000000)
		(2.01117318 0.18353850 0.00000000)
		(2.02793296 0.16889670 0.00000000)
		(2.04469274 0.15310156 0.00000000)
		(2.06145251 0.13626093 0.00000000)
		(2.07821229 0.11848981 0.00000000)
		(2.09497207 0.09990957 0.00000000)
		(2.11173184 0.08064706 0.00000000)
		(2.12849162 0.06083385 0.00000000)
		(2.14525140 0.04060522 0.00000000)
		(2.16201117 0.02009930 0.00000000)
		(2.17877095 -0.00054386 0.00000000)
		(2.19553073 -0.02118331 0.00000000)
		(2.21229050 -0.04167811 0.00000000)
		(2.22905028 -0.06188830 0.00000000)
		(2.24581006 -0.08167587 0.00000000)
		(2.26256983 -0.10090570 0.00000000)
		(2.27932961 -0.11944648 0.00000000)
		(2.29608939 -0.13717159 0.00000000)
		(2.31284916 -0.15396000 0.00000000)
		(2.32960894 -0.16969706 0.00000000)
		(2.34636872 -0.18427530 0.00000000)
		(2.36312849 -0.19759519 0.00000000)
		(2.37988827 -0.20956575 0.00000000)
		(2.39664804 -0.22010525 0.00000000)
		(2.41340782 -0.22914172 0.00000000)
		(2.43016760 -0.23661344 0.00000000)
		(2.44692737 -0.24246940 0.00000000)
		(2.46368715 -0.24666961 0.00000000)
		(2.48044693 -0.24918539 0.00000000)
		(2.49720670 -0.24999954 0.00000000)
		(2.51396648 -0.24910653 0.00000000)
		(2.53072626 -0.24651244 0.00000000)
		(2.54748603 -0.24223499 0.00000000)
		(2.56424581 -0.23630338 0.00000000)
		(2.58100559 -0.22875813 0.00000000)
		(2.59776536 -0.21965076 0.00000000)
		(2.61452514 -0.20904345 0.00000000)
		(2.63128492 -0.19700865 0.00000000)
		(2.64804469 -0.18362853 0.00000000)
		(2.66480447 -0.16899447 0.00000000)
		(2.68156425 -0.15320640 0.00000000)
		(2.69832402 -0.13637212 0.00000000)
		(2.71508380 -0.11860660 0.00000000)
		(2.73184358 -0.10003114 0.00000000)
		(2.74860335 -0.08077261 0.00000000)
		(2.76536313 -0.06096250 0.00000000)
		(2.78212291 -0.04073610 0.00000000)
		(2.79888268 -0.02023152 0.00000000)
		(2.81564246 0.00041122 0.00000000)
		(2.83240223 0.02105114 0.00000000)
		(2.84916201 0.04154732 0.00000000)
		(2.86592179 0.06175978 0.00000000)
		(2.88268156 0.08155049 0.00000000)
		(2.89944134 0.10078433 0.00000000)
		(2.91620112 0.11932994 0.00000000)
		(2.93296089 0.13706068 0.00000000)
		(2.95166480 0.14854679 0.00000000)
		(2.97036872 0.15882384 0.00000000)
		(2.98907263 0.16789182 0.00000000)
		(3.00777654 0.17575074 0.00000000)
		(3.02648045 0.18240059 0.00000000)
		(3.04518436 0.18784138 0.00000000)
		(3.06388827 0.19207311 0.00000000)
		(3.08259218 0.19509577 0.00000000)
		(3.10129609 0.19690937 0.00000000)
		(3.12000000 0.19751390 0.00000000)
		(3.14000000 0.19751390 0.00000000)
		(3.16000000 0.19751390 0.00000000)
		(3.18000000 0.19751390 0.00000000)
		(3.20000000 0.19751390 0.00000000)
		(3.22000000 0.19751390 0.00000000)
		(3.24000000 0.19751390 0.00000000)
		(3.26000000 0.19751390 0.00000000)
		(3.28000000 0.19751390 0.00000000)
		(3.30000000 0.19751390 0.00000000)
		(3.32000000 0.19751390 0.00000000)
		(3.34000000 0.19751390 0.00000000)
		(3.36000000 0.19751390 0.00000000)
		(3.38000000 0.19751390 0.00000000)
		(3.40000000 0.19751390 0.00000000)
		(3.42000000 0.19751390 0.00000000)
		(3.44000000 0.19751390 0.00000000)
		(3.46000000 0.19751390 0.00000000)
		(3.48000000 0.19751390 0.00000000)
		(3.50000000 0.19751390 0.00000000)
		(3.52000000 0.19751390 0.00000000)
		(3.54000000 0.19751390 0.00000000)
		(3.56000000 0.19751390 0.00000000)
		(3.58000000 0.19751390 0.00000000)
		(3.60000000 0.19751390 0.00000000)
		(3.62000000 0.19751390 0.00000000)
		(3.64000000 0.19751390 0.00000000)
		(3.66000000 0.19751390 0.00000000)
		(3.68000000 0.19751390 0.00000000)
		(3.70000000 0.19751390 0.00000000)
		(3.72000000 0.19751390 0.00000000)
		(3.74000000 0.19751390 0.00000000)
		(3.76000000 0.19751390 0.00000000)
		(3.78000000 0.19751390 0.00000000)
		(3.80000000 0.19751390 0.00000000)
		(3.82000000 0.19751390 0.00000000)
		(3.84000000 0.19751390 0.00000000)
		(3.86000000 0.19751390 0.00000000)
		(3.88000000 0.19751390 0.00000000)
		(3.90000000 0.19751390 0.00000000)
		(3.92000000 0.19751390 0.00000000)
		(3.94000000 0.19751390 0.00000000)
		(3.96000000 0.19751390 0.00000000)
		(3.98000000 0.19751390 0.00000000)
		(4.00000000 0.19751390 0.00000000)
	)
	polyLine 4 5
	(
		(-1.00000000 -0.24210323 0.10000000)
		(-0.98000000 -0.24210323 0.10000000)
		(-0.96000000 -0.24210323 0.10000000)
		(-0.94000000 -0.24210323 0.10000000)
		(-0.92000000 -0.24210323 0.10000000)
		(-0.90000000 -0.24210323 0.10000000)
		(-0.88000000 -0.24210323 0.10000000)
		(-0.86000000 -0.24210323 0.10000000)
		(-0.84000000 -0.24210323 0.10000000)
		(-0.82000000 -0.24210323 0.10000000)
		(-0.80000000 -0.24210323 0.10000000)
		(-0.78000000 -0.24210323 0.10000000)
		(-0.76000000 -0.24210323 0.10000000)
		(-0.74000000 -0.24210323 0.10000000)
		(-0.72000000 -0.24210323 0.10000000)
		(-0.70000000 -0.24210323 0.10000000)
		(-0.68000000 -0.24210323 0.10000000)
		(-0.66000000 -0.24210323 0.10000000)
		(-0.64000000 -0.24210323 0.10000000)
		(-0.62000000 -0.24210323 0.10000000)
		(-0.60000000 -0.24210323 0.10000000)
		(-0.58000000 -0.24210323 0.10000000)
		(-0.56000000 -0.24210323 0.10000000)
		(-0.54000000 -0.24210323 0.10000000)
		(-0.52000000 -0.24210323 0.10000000)
		(-0.50000000 -0.24210323 0.10000000)
		(-0.48000000 -0.24210323 0.10000000)
		(-0.46000000 -0.24210323 0.10000000)
		(-0.44000000 -0.24210323 0.10000000)
		(-0.42000000 -0.24210323 0.10000000)
		(-0.40000000 -0.24210323 0.10000000)
		(-0.38000000 -0.24210323 0.10000000)
		(-0.36000000 -0.24210323 0.10000000)
		(-0.34000000 -0.24210323 0.10000000)
		(-0.32000000 -0.24210323 0.10000000)
		(-0.30000000 -0.24210323 0.10000000)
		(-0.28000000 -0.24210323 0.10000000)
		(-0.26000000 -0.24210323 0.10000000)
		(-0.24000000 -0.24210323 0.10000000)
		(-0.22000000 -0.24210323 0.10000000)
		(-0.20000000 -0.24210323 0.10000000)
		(-0.18000000 -0.24210323 0.10000000)
		(-0.16000000 -0.24210323 0.10000000)
		(-0.14000000 -0.24210323 0.10000000)
		(-0.12000000 -0.24210323 0.10000000)
		(-0.10000000 -0.24210323 0.10000000)
		(-0.08162011 -0.24164901 0.10000000)
		(-0.06324022 -0.24028636 0.10000000)
		(-0.04486034 -0.23801528 0.10000000)
		(-0.02648045 -0.23483576 0.10000000)
		(-0.00810056 -0.23074781 0.10000000)
		(0.01027933 -0.22575143 0.10000000)
		(0.02865922 -0.21984661 0.10000000)
		(0.04703911 -0.21303336 0.10000000)
		(0.06541899 -0.20531168 0.10000000)
		(0.08379888 -0.19668156 0.10000000)
		(0.10055866 -0.18326807 0.10000000)
		(0.11731844 -0.16860309 0.10000000)
		(0.13407821 -0.15278678 0.10000000)
		(0.15083799 -0.13592712 0.10000000)
		(0.16759777 -0.11813926 0.10000000)
		(0.18435754 -0.09954466 0.10000000)
		(0.20111732 -0.08027030 0.10000000)
		(0.21787709 -0.06044780 0.10000000)
		(0.23463687 -0.04021251 0.10000000)
		(0.25139665 -0.01970263 0.10000000)
		(0.26815642 0.00094180 0.10000000)
		(0.28491620 0.02157979 0.10000000)
		(0.30167598 0.04207043 0.10000000)
		(0.31843575 0.06227377 0.10000000)
		(0.33519553 0.08205187 0.10000000)
		(0.35195531 0.10126966 0.10000000)
		(0.36871508 0.11979591 0.10000000)
		(0.38547486 0.13750410 0.10000000)
		(0.40223464 0.15427333 0.10000000)
		(0.41899441 0.16998906 0.10000000)
		(0.43575419 0.18454399 0.10000000)
		(0.45251397 0.19783872 0.10000000)
		(0.46927374 0.20978247 0.10000000)
		(0.48603352 0.22029367 0.10000000)
		(0.50279330 0.22930056 0.10000000)
		(0.51955307 0.23674161 0.10000000)
		(0.53631285 0.24256603 0.10000000)
		(0.55307263 0.24673404 0.10000000)
		(0.56983240 0.24921717 0.10000000)
		(0.58659218 0.24999847 0.10000000)
		(0.60335196 0.24907260 0.10000000)
		(0.62011173 0.24644589 0.10000000)
		(0.63687151 0.24213627 0.10000000)
		(0.65363128 0.23617317 0.10000000)
		(0.67039106 0.22859732 0.10000000)
		(0.68715084 0.21946044 0.10000000)
		(0.70391061 0.20882493 0.10000000)
		(0.72067039 0.19676342 0.10000000)
		(0.73743017 0.18335826 0.10000000)
		(0.75418994 0.16870101 0.10000000)
		(0.77094972 0.15289175 0.10000000)
		(0.78770950 0.13603843 0.10000000)
		(0.80446927 0.11825614 0.10000000)
		(0.82122905 0.09966632 0.10000000)
		(0.83798883 0.08039591 0.10000000)
		(0.85474860 0.06057650 0.10000000)
		(0.87150838 0.04034343 0.10000000)
		(0.88826816 0.01983486 0.10000000)
		(0.90502793 -0.00080915 0.10000000)
		(0.92178771 -0.02144764 0.10000000)
		(0.93854749 -0.04193967 0.10000000)
		(0.95530726 -0.06214530 0.10000000)
		(0.97206704 -0.08192656 0.10000000)
		(0.98882682 -0.10114837 0.10000000)
		(1.00558659 -0.11967947 0.10000000)
		(1.02234637 -0.13739331 0.10000000)
		(1.03910615 -0.15416893 0.10000000)
		(1.05586592 -0.16989177 0.10000000)
		(1.07262570 -0.18445448 0.10000000)
		(1.08938547 -0.19775760 0.10000000)
		(1.10614525 -0.20971029 0.10000000)
		(1.12290503 -0.22023093 0.10000000)
		(1.13966480 -0.22924768 0.10000000)
		(1.15642458 -0.23669896 0.10000000)
		(1.17318436 -0.24253389 0.10000000)
		(1.18994413 -0.24671263 0.10000000)
		(1.20670391 -0.24920664 0.10000000)
		(1.22346369 -0.24999890 0.10000000)
		(1.24022346 -0.24908398 0.10000000)
		(1.25698324 -0.24646814 0.10000000)
		(1.27374302 -0.24216924 0.10000000)
		(1.29050279 -0.23621664 0.10000000)
		(1.30726257 -0.22865099 0.10000000)
		(1.32402235 -0.21952394 0.10000000)
		(1.34078212 -0.20889783 0.10000000)
		(1.35754190 -0.19684522 0.10000000)
		(1.37430168 -0.18344841 0.10000000)
		(1.39106145 -0.16879888 0.10000000)
		(1.40782123 -0.15299667 0.10000000)
		(1.42458101 -0.13614970 0.10000000)
		(1.44134078 -0.11837300 0.10000000)
		(1.45810056 -0.09978796 0.10000000)
		(1.47486034 -0.08052150 0.10000000)
		(1.49162011 -0.06070518 0.10000000)
		(1.50837989 -0.04047433 0.10000000)
		(1.52513966 -0.01996708 0.10000000)
		(1.54189944 0.00067651 0.10000000)
		(1.55865922 0.02131548 0.10000000)
		(1.57541899 0.04180889 0.10000000)
		(1.59217877 0.06201681 0.10000000)
		(1.60893855 0.08180123 0.10000000)
		(1.62569832 0.10102705 0.10000000)
		(1.64245810 0.11956299 0.10000000)
		(1.65921788 0.13728247 0.10000000)
		(1.67597765 0.15406448 0.10000000)
		(1.69273743 0.16979444 0.10000000)
		(1.70949721 0.18436492 0.10000000)
		(1.72625698 0.19767642 0.10000000)
		(1.74301676 0.20963805 0.10000000)
		(1.75977654 0.22016812 0.10000000)
		(1.77653631 0.22919473 0.10000000)
		(1.79329609 0.23665623 0.10000000)
		(1.81005587 0.24250168 0.10000000)
		(1.82681564 0.24669116 0.10000000)
		(1.84357542 0.24919605 0.10000000)
		(1.86033520 0.24999926 0.10000000)
		(1.87709497 0.24909529 0.10000000)
		(1.89385475 0.24649032 0.10000000)
		(1.91061453 0.24220215 0.10000000)
		(1.92737430 0.23626005 0.10000000)
		(1.94413408 0.22870459 0.10000000)
		(1.96089385 0.21958738 0.10000000)
		(1.97765363 0.20897067 0.10000000)
		(1.99441341 0.19692696 0.10000000)
		(2.01117318 0.18353850 0.10000000)
		(2.02793296 0.16889670 0.10000000)
		(2.04469274 0.15310156 0.10000000)
		(2.06145251 0.13626093 0.10000000)
		(2.07821229 0.11848981 0.10000000)
		(2.09497207 0.09990957 0.10000000)
		(2.11173184 0.08064706 0.10000000)
		(2.12849162 0.06083385 0.10000000)
		(2.14525140 0.04060522 0.10000000)
		(2.16201117 0.02009930 0.10000000)
		(2.17877095 -0.00054386 0.10000000)
		(2.19553073 -0.02118331 0.10000000)
		(2.21229050 -0.04167811 0.10000000)
		(2.22905028 -0.06188830 0.10000000)
		(2.24581006 -0.08167587 0.10000000)
		(2.26256983 -0.10090570 0.10000000)
		(2.27932961 -0.11944648 0.10000000)
		(2.29608939 -0.13717159 0.10000000)
		(2.31284916 -0.15396000 0.10000000)
		(2.32960894 -0.16969706 0.10000000)
		(2.34636872 -0.18427530 0.10000000)
		(2.36312849 -0.19759519 0.10000000)
		(2.37988827 -0.20956575 0.10000000)
		(2.39664804 -0.22010525 0.10000000)
		(2.41340782 -0.22914172 0.10000000)
		(2.43016760 -0.23661344 0.10000000)
		(2.44692737 -0.24246940 0.10000000)
		(2.46368715 -0.24666961 0.10000000)
		(2.48044693 -0.24918539 0.10000000)
		(2.49720670 -0.24999954 0.10000000)
		(2.51396648 -0.24910653 0.10000000)
		(2.53072626 -0.24651244 0.10000000)
		(2.54748603 -0.24223499 0.10000000)
		(2.56424581 -0.23630338 0.10000000)
		(2.58100559 -0.22875813 0.10000000)
		(2.59776536 -0.21965076 0.10000000)
		(2.61452514 -0.20904345 0.10000000)
		(2.63128492 -0.19700865 0.10000000)
		(2.64804469 -0.18362853 0.10000000)
		(2.66480447 -0.16899447 0.10000000)
		(2.68156425 -0.15320640 0.10000000)
		(2.69832402 -0.13637212 0.10000000)
		(2.71508380 -0.11860660 0.10000000)
		(2.73184358 -0.10003114 0.10000000)
		(2.74860335 -0.08077261 0.10000000)
		(2.76536313 -0.06096250 0.10000000)
		(2.78212291 -0.04073610 0.10000000)
		(2.79888268 -0.02023152 0.10000000)
		(2.81564246 0.00041122 0.10000000)
		(2.83240223 0.02105114 0.10000000)
		(2.84916201 0.04154732 0.10000000)
		(2.86592179 0.06175978 0.10000000)
		(2.88268156 0.08155049 0.10000000)
		(2.89944134 0.10078433 0.10000000)
		(2.91620112 0.11932994 0.10000000)
		(2.93296089 0.13706068 0.10000000)
		(2.95166480 0.14854679 0.10000000)
		(2.97036872 0.15882384 0.10000000)
		(2.98907263 0.16789182 0.10000000)
		(3.00777654 0.17575074 0.10000000)
		(3.02648045 0.18240059 0.10000000)
		(3.04518436 0.18784138 0.10000000)
		(3.06388827 0.19207311 0.10000000)
		(3.08259218 0.19509577 0.10000000)
		(3.10129609 0.19690937 0.10000000)
		(3.12000000 0.19751390 0.10000000)
		(3.14000000 0.19751390 0.10000000)
		(3.16000000 0.19751390 0.10000000)
		(3.18000000 0.19751390 0.10000000)
		(3.20000000 0.19751390 0.10000000)
		(3.22000000 0.19751390 0.10000000)
		(3.24000000 0.19751390 0.10000000)
		(3.26000000 0.19751390 0.10000000)
		(3.28000000 0.19751390 0.10000000)
		(3.30000000 0.19751390 0.10000000)
		(3.32000000 0.19751390 0.10000000)
		(3.34000000 0.19751390 0.10000000)
		(3.36000000 0.19751390 0.10000000)
		(3.38000000 0.19751390 0.10000000)
		(3.40000000 0.19751390 0.10000000)
		(3.42000000 0.19751390 0.10000000)
		(3.44000000 0.19751390 0.10000000)
		(3.46000000 0.19751390 0.10000000)
		(3.48000000 0.19751390 0.10000000)
		(3.50000000 0.19751390 0.10000000)
		(3.52000000 0.19751390 0.10000000)
		(3.54000000 0.19751390 0.10000000)
		(3.56000000 0.19751390 0.10000000)
		(3.58000000 0.19751390 0.10000000)
		(3.60000000 0.19751390 0.10000000)
		(3.62000000 0.19751390 0.10000000)
		(3.64000000 0.19751390 0.10000000)
		(3.66000000 0.19751390 0.10000000)
		(3.68000000 0.19751390 0.10000000)
		(3.70000000 0.19751390 0.10000000)
		(3.72000000 0.19751390 0.10000000)
		(3.74000000 0.19751390 0.10000000)
		(3.76000000 0.19751390 0.10000000)
		(3.78000000 0.19751390 0.10000000)
		(3.80000000 0.19751390 0.10000000)
		(3.82000000 0.19751390 0.10000000)
		(3.84000000 0.19751390 0.10000000)
		(3.86000000 0.19751390 0.10000000)
		(3.88000000 0.19751390 0.10000000)
		(3.90000000 0.19751390 0.10000000)
		(3.92000000 0.19751390 0.10000000)
		(3.94000000 0.19751390 0.10000000)
		(3.96000000 0.19751390 0.10000000)
		(3.98000000 0.19751390 0.10000000)
		(4.00000000 0.19751390 0.10000000)
	)
	polyLine 3 2
	(
		(-1.00000000 0.25789677 0.00000000)
		(-0.98000000 0.25605317 0.00000000)
		(-0.96000000 0.25420957 0.00000000)
		(-0.94000000 0.25236597 0.00000000)
		(-0.92000000 0.25052237 0.00000000)
		(-0.90000000 0.24867877 0.00000000)
		(-0.88000000 0.24683517 0.00000000)
		(-0.86000000 0.24499157 0.00000000)
		(-0.84000000 0.24314797 0.00000000)
		(-0.82000000 0.24130437 0.00000000)
		(-0.80000000 0.23946077 0.00000000)
		(-0.78000000 0.23761717 0.00000000)
		(-0.76000000 0.23577357 0.00000000)
		(-0.74000000 0.23392997 0.00000000)
		(-0.72000000 0.23208637 0.00000000)
		(-0.70000000 0.23024277 0.00000000)
		(-0.68000000 0.22839917 0.00000000)
		(-0.66000000 0.22655557 0.00000000)
		(-0.64000000 0.22471197 0.00000000)
		(-0.62000000 0.22286837 0.00000000)
		(-0.60000000 0.22102477 0.00000000)
		(-0.58000000 0.21918117 0.00000000)
		(-0.56000000 0.21733758 0.00000000)
		(-0.54000000 0.21549398 0.00000000)
		(-0.52000000 0.21365038 0.00000000)
		(-0.50000000 0.21180678 0.00000000)
		(-0.48000000 0.20996318 0.00000000)
		(-0.46000000 0.20811958 0.00000000)
		(-0.44000000 0.20627598 0.00000000)
		(-0.42000000 0.20443238 0.00000000)
		(-0.40000000 0.20258878 0.00000000)
		(-0.38000000 0.20074518 0.00000000)
		(-0.36000000 0.19890158 0.00000000)
		(-0.34000000 0.19705798 0.00000000)
		(-0.32000000 0.19521438 0.00000000)
		(-0.30000000 0.19337078 0.00000000)
		(-0.28000000 0.19152718 0.00000000)
		(-0.26000000 0.18968358 0.00000000)
		(-0.24000000 0.18783998 0.00000000)
		(-0.22000000 0.18599638 0.00000000)
		(-0.20000000 0.18415278 0.00000000)
		(-0.18000000 0.18230918 0.00000000)
		(-0.16000000 0.18046558 0.00000000)
		(-0.14000000 0.17862198 0.00000000)
		(-0.12000000 0.17677838 0.00000000)
		(-0.10000000 0.17493478 0.00000000)
		(-0.08162011 0.17322878 0.00000000)
		(-0.06324022 0.17312402 0.00000000)
		(-0.04486034 0.17462049 0.00000000)
		(-0.02648045 0.17771820 0.00000000)
		(-0.00810056 0.18241713 0.00000000)
		(0.01027933 0.18871730 0.00000000)
		(0.02865922 0.19661870 0.00000000)
		(0.04703911 0.20612134 0.00000000)
		(0.06541899 0.21722521 0.00000000)
		(0.08379888 0.22993031 0.00000000)
		(0.10055866 0.24834880 0.00000000)
		(0.11731844 0.26848575 0.00000000)
		(0.13407821 0.29020363 0.00000000)
		(0.15083799 0.31335416 0.00000000)
		(0.16759777 0.33777923 0.00000000)
		(0.18435754 0.36331207 0.00000000)
		(0.20111732 0.38977831 0.00000000)
		(0.21787709 0.41699721 0.00000000)
		(0.23463687 0.44478292 0.00000000)
		(0.25139665 0.47294569 0.00000000)
		(0.26815642 0.50129321 0.00000000)
		(0.28491620 0.52963190 0.00000000)
		(0.30167598 0.55776824 0.00000000)
		(0.31843575 0.58551009 0.00000000)
		(0.33519553 0.61266802 0.00000000)
		(0.35195531 0.63905658 0.00000000)
		(0.36871508 0.66449556 0.00000000)
		(0.38547486 0.68881124 0.00000000)
		(0.40223464 0.71183759 0.00000000)
		(0.41899441 0.73341737 0.00000000)
		(0.43575419 0.75340320 0.00000000)
		(0.45251397 0.77165862 0.00000000)
		(0.46927374 0.78805896 0.00000000)
		(0.48603352 0.80249223 0.00000000)
		(0.50279330 0.81485986 0.00000000)
		(0.51955307 0.82507742 0.00000000)
		(0.53631285 0.83307511 0.00000000)
		(0.55307263 0.83879833 0.00000000)
		(0.56983240 0.84220799 0.00000000)
		(0.58659218 0.84328082 0.00000000)
		(0.60335196 0.84200948 0.00000000)
		(0.62011173 0.83840266 0.00000000)
		(0.63687151 0.83248499 0.00000000)
		(0.65363128 0.82429687 0.00000000)
		(0.67039106 0.81389423 0.00000000)
		(0.68715084 0.80134809 0.00000000)
		(0.70391061 0.78674414 0.00000000)
		(0.72067039 0.77018209 0.00000000)
		(0.73743017 0.75177505 0.00000000)
		(0.75418994 0.73164871 0.00000000)
		(0.77094972 0.70994050 0.00000000)
		(0.78770950 0.68679868 0.00000000)
		(0.80446927 0.66238126 0.00000000)
		(0.82122905 0.63685499 0.00000000)
		(0.83798883 0.61039417 0.00000000)
		(0.85474860 0.58317951 0.00000000)
		(0.87150838 0.55539684 0.00000000)
		(0.88826816 0.52723588 0.00000000)
		(0.90502793 0.49888893 0.00000000)
		(0.92178771 0.47054957 0.00000000)
		(0.93854749 0.44241131 0.00000000)
		(0.95530726 0.41466632 0.00000000)
		(0.97206704 0.38750404 0.00000000)
		(0.98882682 0.36110997 0.00000000)
		(1.00558659 0.33566433 0.00000000)
		(1.02234637 0.31134090 0.00000000)
		(1.03910615 0.28830576 0.00000000)
		(1.05586592 0.26671622 0.00000000)
		(1.07262570 0.24671971 0.00000000)
		(1.08938547 0.22845277 0.00000000)
		(1.10614525 0.21204015 0.00000000)
		(1.12290503 0.19759393 0.00000000)
		(1.13966480 0.18521275 0.00000000)
		(1.15642458 0.17498116 0.00000000)
		(1.17318436 0.16696902 0.00000000)
		(1.18994413 0.16123106 0.00000000)
		(1.20670391 0.15780646 0.00000000)
		(1.22346369 0.15671859 0.00000000)
		(1.24022346 0.15797489 0.00000000)
		(1.25698324 0.16156678 0.00000000)
		(1.27374302 0.16746973 0.00000000)
		(1.29050279 0.17564344 0.00000000)
		(1.30726257 0.18603208 0.00000000)
		(1.32402235 0.19856472 0.00000000)
		(1.34078212 0.21315577 0.00000000)
		(1.35754190 0.22970559 0.00000000)
		(1.37430168 0.24810118 0.00000000)
		(1.39106145 0.26821691 0.00000000)
		(1.40782123 0.28991542 0.00000000)
		(1.42458101 0.31304853 0.00000000)
		(1.44134078 0.33745829 0.00000000)
		(1.45810056 0.36297799 0.00000000)
		(1.47486034 0.38943338 0.00000000)
		(1.49162011 0.41664379 0.00000000)
		(1.50837989 0.44442342 0.00000000)
		(1.52513966 0.47258256 0.00000000)
		(1.54189944 0.50092893 0.00000000)
		(1.55865922 0.52926896 0.00000000)
		(1.57541899 0.55740912 0.00000000)
		(1.59217877 0.58515725 0.00000000)
		(1.60893855 0.61232386 0.00000000)
		(1.62569832 0.63872345 0.00000000)
		(1.64245810 0.66417573 0.00000000)
		(1.65921788 0.68850691 0.00000000)
		(1.67597765 0.71155083 0.00000000)
		(1.69273743 0.73315013 0.00000000)
		(1.70949721 0.75315731 0.00000000)
		(1.72625698 0.77143576 0.00000000)
		(1.74301676 0.78786065 0.00000000)
		(1.75977654 0.80231983 0.00000000)
		(1.77653631 0.81471455 0.00000000)
		(1.79329609 0.82496018 0.00000000)
		(1.81005587 0.83298675 0.00000000)
		(1.82681564 0.83873945 0.00000000)
		(1.84357542 0.84217900 0.00000000)
		(1.86033520 0.84328190 0.00000000)
		(1.87709497 0.84204064 0.00000000)
		(1.89385475 0.83846368 0.00000000)
		(1.91061453 0.83257545 0.00000000)
		(1.92737430 0.82441616 0.00000000)
		(1.94413408 0.81404153 0.00000000)
		(1.96089385 0.80152239 0.00000000)
		(1.97765363 0.78694425 0.00000000)
		(1.99441341 0.77040665 0.00000000)
		(2.01117318 0.75202253 0.00000000)
		(2.02793296 0.73191741 0.00000000)
		(2.04469274 0.71022860 0.00000000)
		(2.06145251 0.68710420 0.00000000)
		(2.07821229 0.66270212 0.00000000)
		(2.09497207 0.63718899 0.00000000)
		(2.11173184 0.61073904 0.00000000)
		(2.12849162 0.58353289 0.00000000)
		(2.14525140 0.55575631 0.00000000)
		(2.16201117 0.52759899 0.00000000)
		(2.17877095 0.49925321 0.00000000)
		(2.19553073 0.47091252 0.00000000)
		(2.21229050 0.44277046 0.00000000)
		(2.22905028 0.41501921 0.00000000)
		(2.24581006 0.38784827 0.00000000)
		(2.26256983 0.36144318 0.00000000)
		(2.27932961 0.33598425 0.00000000)
		(2.29608939 0.31164534 0.00000000)
		(2.31284916 0.28859265 0.00000000)
		(2.32960894 0.26698359 0.00000000)
		(2.34636872 0.24696574 0.00000000)
		(2.36312849 0.22867578 0.00000000)
		(2.37988827 0.21223862 0.00000000)
		(2.39664804 0.19776650 0.00000000)
		(2.41340782 0.18535824 0.00000000)
		(2.43016760 0.17509858 0.00000000)
		(2.44692737 0.16705757 0.00000000)
		(2.46368715 0.16129013 0.00000000)
		(2.48044693 0.15783565 0.00000000)
		(2.49720670 0.15671770 0.00000000)
		(2.51396648 0.15794393 0.00000000)