/*--------------------------------*- C++ -*----------------------------------*\\
/*--------------------------------*- C++ -*----------------------------------*\\
| =========                 |                                                 |
| \\\\      /  F ield         | OpenFOAM: The Open Source CFD Toolbox           |
|  \\\\    /   O peration     | Version:  v2012                                 |
|   \\\\  /    A nd           | Website:  www.openfoam.com                      |
|    \\\\/     M anipulation  |                                                 |
\\*---------------------------------------------------------------------------*/
FoamFile
{
    version     2.0;
    format      ascii;
    class       dictionary;
    object      blockMeshDict;
}
// * * * * * * * * * * * * * * * * * * * * * * * * * * * * * * * * * * * * * //

scale   0.01;

xmin -1;
xmax 5;
ymin 0;
ymax 0.5;
zmin 0;
zmax 0.1;

vertices
(
    (-1.00000000 0.20537707 0.00000000)
    (4.00000000 -0.04326230 0.00000000)
    (4.00000000 0.45673770 0.00000000)
    (-1.00000000 0.70537707 0.00000000)
    (-1.00000000 0.20537707 0.10000000)
    (4.00000000 -0.04326230 0.10000000)
    (4.00000000 0.45673770 0.10000000)
    (-1.00000000 0.70537707 0.10000000)
);

blocks
(
    hex (0 1 2 3 4 5 6 7) (200 20 1) simpleGrading (1 1 1)
);

edges
(
	polyLine 0 1
	(
		(-1.00000000 0.20537707 0.00000000)
		(-0.98000000 0.20537707 0.00000000)
		(-0.96000000 0.20537707 0.00000000)
		(-0.94000000 0.20537707 0.00000000)
		(-0.92000000 0.20537707 0.00000000)
		(-0.90000000 0.20537707 0.00000000)
		(-0.88000000 0.20537707 0.00000000)
		(-0.86000000 0.20537707 0.00000000)
		(-0.84000000 0.20537707 0.00000000)
		(-0.82000000 0.20537707 0.00000000)
		(-0.80000000 0.20537707 0.00000000)
		(-0.78000000 0.20537707 0.00000000)
		(-0.76000000 0.20537707 0.00000000)
		(-0.74000000 0.20537707 0.00000000)
		(-0.72000000 0.20537707 0.00000000)
		(-0.70000000 0.20537707 0.00000000)
		(-0.68000000 0.20537707 0.00000000)
		(-0.66000000 0.20537707 0.00000000)
		(-0.64000000 0.20537707 0.00000000)
		(-0.62000000 0.20537707 0.00000000)
		(-0.60000000 0.20537707 0.00000000)
		(-0.58000000 0.20537707 0.00000000)
		(-0.56000000 0.20537707 0.00000000)
		(-0.54000000 0.20537707 0.00000000)
		(-0.52000000 0.20537707 0.00000000)
		(-0.50000000 0.20537707 0.00000000)
		(-0.48000000 0.20537707 0.00000000)
		(-0.46000000 0.20537707 0.00000000)
		(-0.44000000 0.20537707 0.00000000)
		(-0.42000000 0.20537707 0.00000000)
		(-0.40000000 0.20537707 0.00000000)
		(-0.38000000 0.20537707 0.00000000)
		(-0.36000000 0.20537707 0.00000000)
		(-0.34000000 0.20537707 0.00000000)
		(-0.32000000 0.20537707 0.00000000)
		(-0.30000000 0.20537707 0.00000000)
		(-0.28000000 0.20537707 0.00000000)
		(-0.26000000 0.20537707 0.00000000)
		(-0.24000000 0.20537707 0.00000000)
		(-0.22000000 0.20537707 0.00000000)
		(-0.20000000 0.20537707 0.00000000)
		(-0.18000000 0.20537707 0.00000000)
		(-0.16000000 0.20537707 0.00000000)
		(-0.14000000 0.20537707 0.00000000)
		(-0.12000000 0.20537707 0.00000000)
		(-0.10000000 0.20537707 0.00000000)
		(-0.08162011 0.20572068 0.00000000)
		(-0.06324022 0.20675150 0.00000000)
		(-0.04486034 0.20846953 0.00000000)
		(-0.02648045 0.21087478 0.00000000)
		(-0.00810056 0.21396725 0.00000000)
		(0.01027933 0.21774693 0.00000000)
		(0.02865922 0.22221382 0.00000000)
		(0.04703911 0.22736793 0.00000000)
		(0.06541899 0.23320925 0.00000000)
		(0.08379888 0.23973779 0.00000000)
		(0.10055866 0.24377247 0.00000000)
		(0.11731844 0.24681380 0.00000000)
		(0.13407821 0.24884939 0.00000000)
		(0.15083799 0.24987094 0.00000000)
		(0.16759777 0.24987430 0.00000000)
		(0.18435754 0.24885944 0.00000000)
		(0.20111732 0.24683051 0.00000000)
		(0.21787709 0.24379576 0.00000000)
		(0.23463687 0.23976758 0.00000000)
		(0.25139665 0.23476236 0.00000000)
		(0.26815642 0.22880051 0.00000000)
		(0.28491620 0.22190632 0.00000000)
		(0.30167598 0.21410789 0.00000000)
		(0.31843575 0.20543699 0.00000000)
		(0.33519553 0.19592895 0.00000000)
		(0.35195531 0.18562252 0.00000000)
		(0.36871508 0.17455970 0.00000000)
		(0.38547486 0.16278557 0.00000000)
		(0.40223464 0.15034810 0.00000000)
		(0.41899441 0.13729798 0.00000000)
		(0.43575419 0.12368838 0.00000000)
		(0.45251397 0.10957476 0.00000000)
		(0.46927374 0.09501464 0.00000000)
		(0.48603352 0.08006735 0.00000000)
		(0.50279330 0.06479378 0.00000000)
		(0.51955307 0.04925619 0.00000000)
		(0.53631285 0.03351789 0.00000000)
		(0.55307263 0.01764300 0.00000000)
		(0.56983240 0.00169622 0.00000000)
		(0.58659218 -0.01425747 0.00000000)
		(0.60335196 -0.03015307 0.00000000)
		(0.62011173 -0.04592579 0.00000000)
		(0.63687151 -0.06151137 0.00000000)
		(0.65363128 -0.07684630 0.00000000)
		(0.67039106 -0.09186809 0.00000000)
		(0.68715084 -0.10651552 0.00000000)
		(0.70391061 -0.12072891 0.00000000)
		(0.72067039 -0.13445035 0.00000000)
		(0.73743017 -0.14762391 0.00000000)
		(0.75418994 -0.16019593 0.00000000)
		(0.77094972 -0.17211515 0.00000000)
		(0.78770950 -0.18333303 0.00000000)
		(0.80446927 -0.19380385 0.00000000)
		(0.82122905 -0.20348493 0.00000000)
		(0.83798883 -0.21233683 0.00000000)
		(0.85474860 -0.22032348 0.00000000)
		(0.87150838 -0.22741234 0.00000000)
		(0.88826816 -0.23357451 0.00000000)
		(0.90502793 -0.23878489 0.00000000)
		(0.92178771 -0.24302225 0.00000000)
		(0.93854749 -0.24626931 0.00000000)
		(0.95530726 -0.24851285 0.00000000)
		(0.97206704 -0.24974373 0.00000000)
		(0.98882682 -0.24995693 0.00000000)
		(1.00558659 -0.24915157 0.00000000)
		(1.02234637 -0.24733095 0.00000000)
		(1.03910615 -0.24450249 0.00000000)
		(1.05586592 -0.24067769 0.00000000)
		(1.07262570 -0.23587216 0.00000000)
		(1.08938547 -0.23010548 0.00000000)
		(1.10614525 -0.22340114 0.00000000)
		(1.12290503 -0.21578646 0.00000000)
		(1.13966480 -0.20729247 0.00000000)
		(1.15642458 -0.19795379 0.00000000)
		(1.17318436 -0.18780847 0.00000000)
		(1.18994413 -0.17689784 0.00000000)
		(1.20670391 -0.16526638 0.00000000)
		(1.22346369 -0.15296147 0.00000000)
		(1.24022346 -0.14003326 0.00000000)
		(1.25698324 -0.12653442 0.00000000)
		(1.27374302 -0.11251998 0.00000000)
		(1.29050279 -0.09804702 0.00000000)
		(1.30726257 -0.08317453 0.00000000)
		(1.32402235 -0.06796312 0.00000000)
		(1.34078212 -0.05247476 0.00000000)
		(1.35754190 -0.03677257 0.00000000)
		(1.37430168 -0.02092054 0.00000000)
		(1.39106145 -0.00498326 0.00000000)
		(1.40782123 0.01097433 0.00000000)
		(1.42458101 0.02688720 0.00000000)
		(1.44134078 0.04269050 0.00000000)
		(1.45810056 0.05831985 0.00000000)
		(1.47486034 0.07371155 0.00000000)
		(1.49162011 0.08880288 0.00000000)
		(1.50837989 0.10353235 0.00000000)
		(1.52513966 0.11783993 0.00000000)
		(1.54189944 0.13166733 0.00000000)
		(1.55865922 0.14495820 0.00000000)
		(1.57541899 0.15765838 0.00000000)
		(1.59217877 0.16971611 0.00000000)
		(1.60893855 0.18108227 0.00000000)
		(1.62569832 0.19171054 0.00000000)
		(1.64245810 0.20155761 0.00000000)
		(1.65921788 0.21058335 0.00000000)
		(1.67597765 0.21875098 0.00000000)
		(1.69273743 0.22602723 0.00000000)
		(1.70949721 0.23238243 0.00000000)
		(1.72625698 0.23779071 0.00000000)
		(1.74301676 0.24223000 0.00000000)
		(1.75977654 0.24568224 0.00000000)
		(1.77653631 0.24813335 0.00000000)
		(1.79329609 0.24957333 0.00000000)
		(1.81005587 0.24999634 0.00000000)
		(1.82681564 0.24940063 0.00000000)
		(1.84357542 0.24778864 0.00000000)
		(1.86033520 0.24516693 0.00000000)
		(1.87709497 0.24154620 0.00000000)
		(1.89385475 0.23694119 0.00000000)
		(1.91061453 0.23137066 0.00000000)
		(1.92737430 0.22485733 0.00000000)
		(1.94413408 0.21742772 0.00000000)
		(1.96089385 0.20911212 0.00000000)
		(1.97765363 0.19994441 0.00000000)
		(1.99441341 0.18996194 0.00000000)
		(2.01117318 0.17920540 0.00000000)
		(2.02793296 0.16771861 0.00000000)
		(2.04469274 0.15554839 0.00000000)
		(2.06145251 0.14274433 0.00000000)
		(2.07821229 0.12935859 0.00000000)
		(2.09497207 0.11544573 0.00000000)
		(2.11173184 0.10106244 0.00000000)
		(2.12849162 0.08626734 0.00000000)
		(2.14525140 0.07112070 0.00000000)
		(2.16201117 0.05568425 0.00000000)
		(2.17877095 0.04002090 0.00000000)
		(2.19553073 0.02419446 0.00000000)
		(2.21229050 0.00826943 0.00000000)
		(2.22905028 -0.00768929 0.00000000)
		(2.24581006 -0.02361668 0.00000000)
		(2.26256983 -0.03944784 0.00000000)
		(2.27932961 -0.05511824 0.00000000)
		(2.29608939 -0.07056405 0.00000000)
		(2.31284916 -0.08572232 0.00000000)
		(2.32960894 -0.10053127 0.00000000)
		(2.34636872 -0.11493058 0.00000000)
		(2.36312849 -0.12886155 0.00000000)
		(2.37988827 -0.14226742 0.00000000)
		(2.39664804 -0.15509357 0.00000000)
		(2.41340782 -0.16728773 0.00000000)
		(2.43016760 -0.17880020 0.00000000)
		(2.44692737 -0.18958409 0.00000000)
		(2.46368715 -0.19959543 0.00000000)
		(2.48044693 -0.20879345 0.00000000)
		(2.49720670 -0.21714065 0.00000000)
		(2.51396648 -0.22460303 0.00000000)
		(2.53072626 -0.23115018 0.00000000)
		(2.54748603 -0.23675541 0.00000000)
		(2.56424581 -0.24139588 0.00000000)
		(2.58100559 -0.24505269 0.00000000)
		(2.59776536 -0.24771094 0.00000000)
		(2.61452514 -0.24935979 0.00000000)
		(2.63128492 -0.24999252 0.00000000)
		(2.64804469 -0.24960656 0.00000000)
		(2.66480447 -0.24820348 0.00000000)
		(2.68156425 -0.24578899 0.00000000)
		(2.69832402 -0.24237294 0.00000000)
		(2.71508380 -0.23796924 0.00000000)
		(2.73184358 -0.23259584 0.00000000)
		(2.74860335 -0.22627464 0.00000000)
		(2.76536313 -0.21903139 0.00000000)
		(2.78212291 -0.21089561 0.00000000)
		(2.79888268 -0.20190045 0.00000000)
		(2.81564246 -0.19208257 0.00000000)
		(2.83240223 -0.18148197 0.00000000)
		(2.84916201 -0.17014185 0.00000000)
		(2.86592179 -0.15810842 0.00000000)
		(2.88268156 -0.14543071 0.00000000)
		(2.89944134 -0.13216039 0.00000000)
		(2.91620112 -0.11835153 0.00000000)
		(2.93296089 -0.10406039 0.00000000)
		(2.95166480 -0.09250876 0.00000000)
		(2.97036872 -0.08217308 0.00000000)
		(2.98907263 -0.07305337 0.00000000)
		(3.00777654 -0.06514961 0.00000000)
		(3.02648045 -0.05846182 0.00000000)
		(3.04518436 -0.05299000 0.00000000)
		(3.06388827 -0.04873413 0.00000000)
		(3.08259218 -0.04569422 0.00000000)
		(3.10129609 -0.04387028 0.00000000)
		(3.12000000 -0.04326230 0.00000000)
		(3.14000000 -0.04326230 0.00000000)
		(3.16000000 -0.04326230 0.00000000)
		(3.18000000 -0.04326230 0.00000000)
		(3.20000000 -0.04326230 0.00000000)
		(3.22000000 -0.04326230 0.00000000)
		(3.24000000 -0.04326230 0.00000000)
		(3.26000000 -0.04326230 0.00000000)
		(3.28000000 -0.04326230 0.00000000)
		(3.30000000 -0.04326230 0.00000000)
		(3.32000000 -0.04326230 0.00000000)
		(3.34000000 -0.04326230 0.00000000)
		(3.36000000 -0.04326230 0.00000000)
		(3.38000000 -0.04326230 0.00000000)
		(3.40000000 -0.04326230 0.00000000)
		(3.42000000 -0.04326230 0.00000000)
		(3.44000000 -0.04326230 0.00000000)
		(3.46000000 -0.04326230 0.00000000)
		(3.48000000 -0.04326230 0.00000000)
		(3.50000000 -0.04326230 0.00000000)
		(3.52000000 -0.04326230 0.00000000)
		(3.54000000 -0.04326230 0.00000000)
		(3.56000000 -0.04326230 0.00000000)
		(3.58000000 -0.04326230 0.00000000)
		(3.60000000 -0.04326230 0.00000000)
		(3.62000000 -0.04326230 0.00000000)
		(3.64000000 -0.04326230 0.00000000)
		(3.66000000 -0.04326230 0.00000000)
		(3.68000000 -0.04326230 0.00000000)
		(3.70000000 -0.04326230 0.00000000)
		(3.72000000 -0.04326230 0.00000000)
		(3.74000000 -0.04326230 0.00000000)
		(3.76000000 -0.04326230 0.00000000)
		(3.78000000 -0.04326230 0.00000000)
		(3.80000000 -0.04326230 0.00000000)
		(3.82000000 -0.04326230 0.00000000)
		(3.84000000 -0.04326230 0.00000000)
		(3.86000000 -0.04326230 0.00000000)
		(3.88000000 -0.04326230 0.00000000)
		(3.90000000 -0.04326230 0.00000000)
		(3.92000000 -0.04326230 0.00000000)
		(3.94000000 -0.04326230 0.00000000)
		(3.96000000 -0.04326230 0.00000000)
		(3.98000000 -0.04326230 0.00000000)
		(4.00000000 -0.04326230 0.00000000)
	)
	polyLine 4 5
	(
		(-1.00000000 0.20537707 0.10000000)
		(-0.98000000 0.20537707 0.10000000)
		(-0.96000000 0.20537707 0.10000000)
		(-0.94000000 0.20537707 0.10000000)
		(-0.92000000 0.20537707 0.10000000)
		(-0.90000000 0.20537707 0.10000000)
		(-0.88000000 0.20537707 0.10000000)
		(-0.86000000 0.20537707 0.10000000)
		(-0.84000000 0.20537707 0.10000000)
		(-0.82000000 0.20537707 0.10000000)
		(-0.80000000 0.20537707 0.10000000)
		(-0.78000000 0.20537707 0.10000000)
		(-0.76000000 0.20537707 0.10000000)
		(-0.74000000 0.20537707 0.10000000)
		(-0.72000000 0.20537707 0.10000000)
		(-0.70000000 0.20537707 0.10000000)
		(-0.68000000 0.20537707 0.10000000)
		(-0.66000000 0.20537707 0.10000000)
		(-0.64000000 0.20537707 0.10000000)
		(-0.62000000 0.20537707 0.10000000)
		(-0.60000000 0.20537707 0.10000000)
		(-0.58000000 0.20537707 0.10000000)
		(-0.56000000 0.20537707 0.10000000)
		(-0.54000000 0.20537707 0.10000000)
		(-0.52000000 0.20537707 0.10000000)
		(-0.50000000 0.20537707 0.10000000)
		(-0.48000000 0.20537707 0.10000000)
		(-0.46000000 0.20537707 0.10000000)
		(-0.44000000 0.20537707 0.10000000)
		(-0.42000000 0.20537707 0.10000000)
		(-0.40000000 0.20537707 0.10000000)
		(-0.38000000 0.20537707 0.10000000)
		(-0.36000000 0.20537707 0.10000000)
		(-0.34000000 0.20537707 0.10000000)
		(-0.32000000 0.20537707 0.10000000)
		(-0.30000000 0.20537707 0.10000000)
		(-0.28000000 0.20537707 0.10000000)
		(-0.26000000 0.20537707 0.10000000)
		(-0.24000000 0.20537707 0.10000000)
		(-0.22000000 0.20537707 0.10000000)
		(-0.20000000 0.20537707 0.10000000)
		(-0.18000000 0.20537707 0.10000000)
		(-0.16000000 0.20537707 0.10000000)
		(-0.14000000 0.20537707 0.10000000)
		(-0.12000000 0.20537707 0.10000000)
		(-0.10000000 0.20537707 0.10000000)
		(-0.08162011 0.20572068 0.10000000)
		(-0.06324022 0.20675150 0.10000000)
		(-0.04486034 0.20846953 0.10000000)
		(-0.02648045 0.21087478 0.10000000)
		(-0.00810056 0.21396725 0.10000000)
		(0.01027933 0.21774693 0.10000000)
		(0.02865922 0.22221382 0.10000000)
		(0.04703911 0.22736793 0.10000000)
		(0.06541899 0.23320925 0.10000000)
		(0.08379888 0.23973779 0.10000000)
		(0.10055866 0.24377247 0.10000000)
		(0.11731844 0.24681380 0.10000000)
		(0.13407821 0.24884939 0.10000000)
		(0.15083799 0.24987094 0.10000000)
		(0.16759777 0.24987430 0.10000000)
		(0.18435754 0.24885944 0.10000000)
		(0.20111732 0.24683051 0.10000000)
		(0.21787709 0.24379576 0.10000000)
		(0.23463687 0.23976758 0.10000000)
		(0.25139665 0.23476236 0.10000000)
		(0.26815642 0.22880051 0.10000000)
		(0.28491620 0.22190632 0.10000000)
		(0.30167598 0.21410789 0.10000000)
		(0.31843575 0.20543699 0.10000000)
		(0.33519553 0.19592895 0.10000000)
		(0.35195531 0.18562252 0.10000000)
		(0.36871508 0.17455970 0.10000000)
		(0.38547486 0.16278557 0.10000000)
		(0.40223464 0.15034810 0.10000000)
		(0.41899441 0.13729798 0.10000000)
		(0.43575419 0.12368838 0.10000000)
		(0.45251397 0.10957476 0.10000000)
		(0.46927374 0.09501464 0.10000000)
		(0.48603352 0.08006735 0.10000000)
		(0.50279330 0.06479378 0.10000000)
		(0.51955307 0.04925619 0.10000000)
		(0.53631285 0.03351789 0.10000000)
		(0.55307263 0.01764300 0.10000000)
		(0.56983240 0.00169622 0.10000000)
		(0.58659218 -0.01425747 0.10000000)
		(0.60335196 -0.03015307 0.10000000)
		(0.62011173 -0.04592579 0.10000000)
		(0.63687151 -0.06151137 0.10000000)
		(0.65363128 -0.07684630 0.10000000)
		(0.67039106 -0.09186809 0.10000000)
		(0.68715084 -0.10651552 0.10000000)
		(0.70391061 -0.12072891 0.10000000)
		(0.72067039 -0.13445035 0.10000000)
		(0.73743017 -0.14762391 0.10000000)
		(0.75418994 -0.16019593 0.10000000)
		(0.77094972 -0.17211515 0.10000000)
		(0.78770950 -0.18333303 0.10000000)
		(0.80446927 -0.19380385 0.10000000)
		(0.82122905 -0.20348493 0.10000000)
		(0.83798883 -0.21233683 0.10000000)
		(0.85474860 -0.22032348 0.10000000)
		(0.87150838 -0.22741234 0.10000000)
		(0.88826816 -0.23357451 0.10000000)
		(0.90502793 -0.23878489 0.10000000)
		(0.92178771 -0.24302225 0.10000000)
		(0.93854749 -0.24626931 0.10000000)
		(0.95530726 -0.24851285 0.10000000)
		(0.97206704 -0.24974373 0.10000000)
		(0.98882682 -0.24995693 0.10000000)
		(1.00558659 -0.24915157 0.10000000)
		(1.02234637 -0.24733095 0.10000000)
		(1.03910615 -0.24450249 0.10000000)
		(1.05586592 -0.24067769 0.10000000)
		(1.07262570 -0.23587216 0.10000000)
		(1.08938547 -0.23010548 0.10000000)
		(1.10614525 -0.22340114 0.10000000)
		(1.12290503 -0.21578646 0.10000000)
		(1.13966480 -0.20729247 0.10000000)
		(1.15642458 -0.19795379 0.10000000)
		(1.17318436 -0.18780847 0.10000000)
		(1.18994413 -0.17689784 0.10000000)
		(1.20670391 -0.16526638 0.10000000)
		(1.22346369 -0.15296147 0.10000000)
		(1.24022346 -0.14003326 0.10000000)
		(1.25698324 -0.12653442 0.10000000)
		(1.27374302 -0.11251998 0.10000000)
		(1.29050279 -0.09804702 0.10000000)
		(1.30726257 -0.08317453 0.10000000)
		(1.32402235 -0.06796312 0.10000000)
		(1.34078212 -0.05247476 0.10000000)
		(1.35754190 -0.03677257 0.10000000)
		(1.37430168 -0.02092054 0.10000000)
		(1.39106145 -0.00498326 0.10000000)
		(1.40782123 0.01097433 0.10000000)
		(1.42458101 0.02688720 0.10000000)
		(1.44134078 0.04269050 0.10000000)
		(1.45810056 0.05831985 0.10000000)
		(1.47486034 0.07371155 0.10000000)
		(1.49162011 0.08880288 0.10000000)
		(1.50837989 0.10353235 0.10000000)
		(1.52513966 0.11783993 0.10000000)
		(1.54189944 0.13166733 0.10000000)
		(1.55865922 0.14495820 0.10000000)
		(1.57541899 0.15765838 0.10000000)
		(1.59217877 0.16971611 0.10000000)
		(1.60893855 0.18108227 0.10000000)
		(1.62569832 0.19171054 0.10000000)
		(1.64245810 0.20155761 0.10000000)
		(1.65921788 0.21058335 0.10000000)
		(1.67597765 0.21875098 0.10000000)
		(1.69273743 0.22602723 0.10000000)
		(1.70949721 0.23238243 0.10000000)
		(1.72625698 0.23779071 0.10000000)
		(1.74301676 0.24223000 0.10000000)
		(1.75977654 0.24568224 0.10000000)
		(1.77653631 0.24813335 0.10000000)
		(1.79329609 0.24957333 0.10000000)
		(1.81005587 0.24999634 0.10000000)
		(1.82681564 0.24940063 0.10000000)
		(1.84357542 0.24778864 0.10000000)
		(1.86033520 0.24516693 0.10000000)
		(1.87709497 0.24154620 0.10000000)
		(1.89385475 0.23694119 0.10000000)
		(1.91061453 0.23137066 0.10000000)
		(1.92737430 0.22485733 0.10000000)
		(1.94413408 0.21742772 0.10000000)
		(1.96089385 0.20911212 0.10000000)
		(1.97765363 0.19994441 0.10000000)
		(1.99441341 0.18996194 0.10000000)
		(2.01117318 0.17920540 0.10000000)
		(2.02793296 0.16771861 0.10000000)
		(2.04469274 0.15554839 0.10000000)
		(2.06145251 0.14274433 0.10000000)
		(2.07821229 0.12935859 0.10000000)
		(2.09497207 0.11544573 0.10000000)
		(2.11173184 0.10106244 0.10000000)
		(2.12849162 0.08626734 0.10000000)
		(2.14525140 0.07112070 0.10000000)
		(2.16201117 0.05568425 0.10000000)
		(2.17877095 0.04002090 0.10000000)
		(2.19553073 0.02419446 0.10000000)
		(2.21229050 0.00826943 0.10000000)
		(2.22905028 -0.00768929 0.10000000)
		(2.24581006 -0.02361668 0.10000000)
		(2.26256983 -0.03944784 0.10000000)
		(2.27932961 -0.05511824 0.10000000)
		(2.29608939 -0.07056405 0.10000000)
		(2.31284916 -0.08572232 0.10000000)
		(2.32960894 -0.10053127 0.10000000)
		(2.34636872 -0.11493058 0.10000000)
		(2.36312849 -0.12886155 0.10000000)
		(2.37988827 -0.14226742 0.10000000)
		(2.39664804 -0.15509357 0.10000000)
		(2.41340782 -0.16728773 0.10000000)
		(2.43016760 -0.17880020 0.10000000)
		(2.44692737 -0.18958409 0.10000000)
		(2.46368715 -0.19959543 0.10000000)
		(2.48044693 -0.20879345 0.10000000)
		(2.49720670 -0.21714065 0.10000000)
		(2.51396648 -0.22460303 0.10000000)
		(2.53072626 -0.23115018 0.10000000)
		(2.54748603 -0.23675541 0.10000000)
		(2.56424581 -0.24139588 0.10000000)
		(2.58100559 -0.24505269 0.10000000)
		(2.59776536 -0.24771094 0.10000000)
		(2.61452514 -0.24935979 0.10000000)
		(2.63128492 -0.24999252 0.10000000)
		(2.64804469 -0.24960656 0.10000000)
		(2.66480447 -0.24820348 0.10000000)
		(2.68156425 -0.24578899 0.10000000)
		(2.69832402 -0.24237294 0.10000000)
		(2.71508380 -0.23796924 0.10000000)
		(2.73184358 -0.23259584 0.10000000)
		(2.74860335 -0.22627464 0.10000000)
		(2.76536313 -0.21903139 0.10000000)
		(2.78212291 -0.21089561 0.10000000)
		(2.79888268 -0.20190045 0.10000000)
		(2.81564246 -0.19208257 0.10000000)
		(2.83240223 -0.18148197 0.10000000)
		(2.84916201 -0.17014185 0.10000000)
		(2.86592179 -0.15810842 0.10000000)
		(2.88268156 -0.14543071 0.10000000)
		(2.89944134 -0.13216039 0.10000000)
		(2.91620112 -0.11835153 0.10000000)
		(2.93296089 -0.10406039 0.10000000)
		(2.95166480 -0.09250876 0.10000000)
		(2.97036872 -0.08217308 0.10000000)
		(2.98907263 -0.07305337 0.10000000)
		(3.00777654 -0.06514961 0.10000000)
		(3.02648045 -0.05846182 0.10000000)
		(3.04518436 -0.05299000 0.10000000)
		(3.06388827 -0.04873413 0.10000000)
		(3.08259218 -0.04569422 0.10000000)
		(3.10129609 -0.04387028 0.10000000)
		(3.12000000 -0.04326230 0.10000000)
		(3.14000000 -0.04326230 0.10000000)
		(3.16000000 -0.04326230 0.10000000)
		(3.18000000 -0.04326230 0.10000000)
		(3.20000000 -0.04326230 0.10000000)
		(3.22000000 -0.04326230 0.10000000)
		(3.24000000 -0.04326230 0.10000000)
		(3.26000000 -0.04326230 0.10000000)
		(3.28000000 -0.04326230 0.10000000)
		(3.30000000 -0.04326230 0.10000000)
		(3.32000000 -0.04326230 0.10000000)
		(3.34000000 -0.04326230 0.10000000)
		(3.36000000 -0.04326230 0.10000000)
		(3.38000000 -0.04326230 0.10000000)
		(3.40000000 -0.04326230 0.10000000)
		(3.42000000 -0.04326230 0.10000000)
		(3.44000000 -0.04326230 0.10000000)
		(3.46000000 -0.04326230 0.10000000)
		(3.48000000 -0.04326230 0.10000000)
		(3.50000000 -0.04326230 0.10000000)
		(3.52000000 -0.04326230 0.10000000)
		(3.54000000 -0.04326230 0.10000000)
		(3.56000000 -0.04326230 0.10000000)
		(3.58000000 -0.04326230 0.10000000)
		(3.60000000 -0.04326230 0.10000000)
		(3.62000000 -0.04326230 0.10000000)
		(3.64000000 -0.04326230 0.10000000)
		(3.66000000 -0.04326230 0.10000000)
		(3.68000000 -0.04326230 0.10000000)
		(3.70000000 -0.04326230 0.10000000)
		(3.72000000 -0.04326230 0.10000000)
		(3.74000000 -0.04326230 0.10000000)
		(3.76000000 -0.04326230 0.10000000)
		(3.78000000 -0.04326230 0.10000000)
		(3.80000000 -0.04326230 0.10000000)
		(3.82000000 -0.04326230 0.10000000)
		(3.84000000 -0.04326230 0.10000000)
		(3.86000000 -0.04326230 0.10000000)
		(3.88000000 -0.04326230 0.10000000)
		(3.90000000 -0.04326230 0.10000000)
		(3.92000000 -0.04326230 0.10000000)
		(3.94000000 -0.04326230 0.10000000)
		(3.96000000 -0.04326230 0.10000000)
		(3.98000000 -0.04326230 0.10000000)
		(4.00000000 -0.04326230 0.10000000)
	)
	polyLine 3 2
	(
		(-1.00000000 0.70537707 0.00000000)
		(-0.98000000 0.70750395 0.00000000)
		(-0.96000000 0.70963084 0.00000000)
		(-0.94000000 0.71175772 0.00000000)
		(-0.92000000 0.71388460 0.00000000)
		(-0.90000000 0.71601149 0.00000000)
		(-0.88000000 0.71813837 0.00000000)
		(-0.86000000 0.72026526 0.00000000)
		(-0.84000000 0.72239214 0.00000000)
		(-0.82000000 0.72451902 0.00000000)
		(-0.80000000 0.72664591 0.00000000)
		(-0.78000000 0.72877279 0.00000000)
		(-0.76000000 0.73089968 0.00000000)
		(-0.74000000 0.73302656 0.00000000)
		(-0.72000000 0.73515344 0.00000000)
		(-0.70000000 0.73728033 0.00000000)
		(-0.68000000 0.73940721 0.00000000)
		(-0.66000000 0.74153410 0.00000000)
		(-0.64000000 0.74366098 0.00000000)
		(-0.62000000 0.74578786 0.00000000)
		(-0.60000000 0.74791475 0.00000000)
		(-0.58000000 0.75004163 0.00000000)
		(-0.56000000 0.75216852 0.00000000)
		(-0.54000000 0.75429540 0.00000000)
		(-0.52000000 0.75642228 0.00000000)
		(-0.50000000 0.75854917 0.00000000)
		(-0.48000000 0.76067605 0.00000000)
		(-0.46000000 0.76280294 0.00000000)
		(-0.44000000 0.76492982 0.00000000)
		(-0.42000000 0.76705670 0.00000000)
		(-0.40000000 0.76918359 0.00000000)
		(-0.38000000 0.77131047 0.00000000)
		(-0.36000000 0.77343736 0.00000000)
		(-0.34000000 0.77556424 0.00000000)
		(-0.32000000 0.77769113 0.00000000)
		(-0.30000000 0.77981801 0.00000000)
		(-0.28000000 0.78194489 0.00000000)
		(-0.26000000 0.78407178 0.00000000)
		(-0.24000000 0.78619866 0.00000000)
		(-0.22000000 0.78832555 0.00000000)
		(-0.20000000 0.79045243 0.00000000)
		(-0.18000000 0.79257931 0.00000000)
		(-0.16000000 0.79470620 0.00000000)
		(-0.14000000 0.79683308 0.00000000)
		(-0.12000000 0.79895997 0.00000000)
		(-0.10000000 0.80108685 0.00000000)
		(-0.08162011 0.80222644 0.00000000)
		(-0.06324022 0.80445289 0.00000000)
		(-0.04486034 0.80776620 0.00000000)
		(-0.02648045 0.81216635 0.00000000)
		(-0.00810056 0.81765337 0.00000000)
		(0.01027933 0.82422723 0.00000000)
		(0.02865922 0.83188795 0.00000000)
		(0.04703911 0.84063553 0.00000000)
		(0.06541899 0.85046996 0.00000000)
		(0.08379888 0.86139124 0.00000000)
		(0.10055866 0.86747329 0.00000000)
		(0.11731844 0.87205793 0.00000000)
		(0.13407821 0.87512647 0.00000000)
		(0.15083799 0.87666640 0.00000000)
		(0.16759777 0.87667146 0.00000000)
		(0.18435754 0.87514162 0.00000000)
		(0.20111732 0.87208311 0.00000000)
		(0.21787709 0.86750841 0.00000000)
		(0.23463687 0.86143614 0.00000000)
		(0.25139665 0.85389106 0.00000000)
		(0.26815642 0.84490391 0.00000000)
		(0.28491620 0.83451131 0.00000000)
		(0.30167598 0.82275561 0.00000000)
		(0.31843575 0.80968471 0.00000000)
		(0.33519553 0.79535188 0.00000000)
		(0.35195531 0.77981552 0.00000000)
		(0.36871508 0.76313894 0.00000000)
		(0.38547486 0.74539009 0.00000000)
		(0.40223464 0.72664131 0.00000000)
		(0.41899441 0.70696898 0.00000000)
		(0.43575419 0.68645328 0.00000000)
		(0.45251397 0.66517780 0.00000000)
		(0.46927374 0.64322923 0.00000000)
		(0.48603352 0.62069702 0.00000000)
		(0.50279330 0.59767299 0.00000000)
		(0.51955307 0.57425094 0.00000000)
		(0.53631285 0.55052633 0.00000000)
		(0.55307263 0.52659583 0.00000000)
		(0.56983240 0.50255696 0.00000000)
		(0.58659218 0.47850766 0.00000000)
		(0.60335196 0.45454595 0.00000000)
		(0.62011173 0.43076945 0.00000000)
		(0.63687151 0.40727507 0.00000000)
		(0.65363128 0.38415853 0.00000000)
		(0.67039106 0.36151403 0.00000000)
		(0.68715084 0.33943384 0.00000000)
		(0.70391061 0.31800795 0.00000000)
		(0.72067039 0.29732366 0.00000000)
		(0.73743017 0.27746525 0.00000000)
		(0.75418994 0.25851365 0.00000000)
		(0.77094972 0.24054608 0.00000000)
		(0.78770950 0.22363576 0.00000000)
		(0.80446927 0.20785160 0.00000000)
		(0.82122905 0.19325791 0.00000000)
		(0.83798883 0.17991416 0.00000000)
		(0.85474860 0.16787474 0.00000000)
		(0.87150838 0.15718868 0.00000000)
		(0.88826816 0.14789956 0.00000000)
		(0.90502793 0.14004520 0.00000000)
		(0.92178771 0.13365763 0.00000000)
		(0.93854749 0.12876286 0.00000000)
		(0.95530726 0.12538084 0.00000000)
		(0.97206704 0.12352537 0.00000000)
		(0.98882682 0.12320398 0.00000000)
		(1.00558659 0.12441801 0.00000000)
		(1.02234637 0.12716249 0.00000000)
		(1.03910615 0.13142625 0.00000000)
		(1.05586592 0.13719191 0.00000000)
		(1.07262570 0.14443597 0.00000000)
		(1.08938547 0.15312892 0.00000000)
		(1.10614525 0.16323534 0.00000000)
		(1.12290503 0.17471404 0.00000000)
		(1.13966480 0.18751825 0.00000000)
		(1.15642458 0.20159579 0.00000000)
		(1.17318436 0.21688929 0.00000000)
		(1.18994413 0.23333645 0.00000000)
		(1.20670391 0.25087023 0.00000000)
		(1.22346369 0.26941918 0.00000000)
		(1.24022346 0.28890774 0.00000000)
		(1.25698324 0.30925647 0.00000000)
		(1.27374302 0.33038246 0.00000000)
		(1.29050279 0.35219963 0.00000000)
		(1.30726257 0.37461907 0.00000000)
		(1.32402235 0.39754942 0.00000000)
		(1.34078212 0.42089725 0.00000000)
		(1.35754190 0.44456742 0.00000000)
		(1.37430168 0.46846346 0.00000000)
		(1.39106145 0.49248802 0.00000000)
		(1.40782123 0.51654318 0.00000000)
		(1.42458101 0.54053094 0.00000000)
		(1.44134078 0.56435353 0.00000000)
		(1.45810056 0.58791389 0.00000000)
		(1.47486034 0.61111601 0.00000000)
		(1.49162011 0.63386535 0.00000000)
		(1.50837989 0.65606919 0.00000000)
		(1.52513966 0.67763707 0.00000000)
		(1.54189944 0.69848110 0.00000000)
		(1.55865922 0.71851634 0.00000000)
		(1.57541899 0.73766114 0.00000000)
		(1.59217877 0.75583750 0.00000000)
		(1.60893855 0.77297135 0.00000000)
		(1.62569832 0.78899286 0.00000000)
		(1.64245810 0.80383676 0.00000000)
		(1.65921788 0.81744256 0.00000000)
		(1.67597765 0.82975481 0.00000000)
		(1.69273743 0.84072334 0.00000000)
		(1.70949721 0.85030345 0.00000000)
		(1.72625698 0.85845612 0.00000000)
		(1.74301676 0.86514812 0.00000000)
		(1.75977654 0.87035217 0.00000000)
		(1.77653631 0.87404707 0.00000000)
		(1.79329609 0.87621777 0.00000000)
		(1.81005587 0.87685542 0.00000000)
		(1.82681564 0.87595743 0.00000000)
		(1.84357542 0.87352744 0.00000000)
		(1.86033520 0.86957537 0.00000000)
		(1.87709497 0.86411731 0.00000000)
		(1.89385475 0.85717552 0.00000000)
		(1.91061453 0.84877827 0.00000000)
		(1.92737430 0.83895978 0.00000000)
		(1.94413408 0.82776007 0.00000000)
		(1.96089385 0.81522477 0.00000000)
		(1.97765363 0.80140495 0.00000000)
		(1.99441341 0.78635695 0.00000000)
		(2.01117318 0.77014207 0.00000000)
		(2.02793296 0.75282638 0.00000000)
		(2.04469274 0.73448046 0.00000000)
		(2.06145251 0.71517905 0.00000000)
		(2.07821229 0.69500080 0.00000000)
		(2.09497207 0.67402795 0.00000000)
		(2.11173184 0.65234595 0.00000000)
		(2.12849162 0.63004316 0.00000000)
		(2.14525140 0.60721046 0.00000000)
		(2.16201117 0.58394088 0.00000000)
		(2.17877095 0.56032925 0.00000000)
		(2.19553073 0.53647179 0.00000000)
		(2.21229050 0.51246571 0.00000000)
		(2.22905028 0.48840883 0.00000000)
		(2.24581006 0.46439918 0.00000000)
		(2.26256983 0.44053461 0.00000000)
		(2.27932961 0.41691234 0.00000000)
		(2.29608939 0.39362866 0.00000000)
		(2.31284916 0.37077842 0.00000000)
		(2.32960894 0.34845475 0.00000000)
		(2.34636872 0.32674862 0.00000000)
		(2.36312849 0.30574846 0.00000000)
		(2.37988827 0.28553986 0.00000000)
		(2.39664804 0.26620516 0.00000000)
		(2.41340782 0.24782316 0.00000000)
		(2.43016760 0.23046875 0.00000000)
		(2.44692737 0.21421265 0.00000000)
		(2.46368715 0.19912110 0.00000000)
		(2.48044693 0.18525561 0.00000000)
		(2.49720670 0.17267267 0.00000000)
		(2.51396648 0.16142355 0.00000000)