/*--------------------------------*- C++ -*----------------------------------*\\
/*--------------------------------*- C++ -*----------------------------------*\\
| =========                 |                                                 |
| \\\\      /  F ield         | OpenFOAM: The Open Source CFD Toolbox           |
|  \\\\    /   O peration     | Version:  v2012                                 |
|   \\\\  /    A nd           | Website:  www.openfoam.com                      |
|    \\\\/     M anipulation  |                                                 |
\\*---------------------------------------------------------------------------*/
FoamFile
{
    version     2.0;
    format      ascii;
    class       dictionary;
    object      blockMeshDict;
}
// * * * * * * * * * * * * * * * * * * * * * * * * * * * * * * * * * * * * * //

scale   0.01;

xmin -1;
xmax 5;
ymin 0;
ymax 0.5;
zmin 0;
zmax 0.1;

vertices
(
    (-1.00000000 -0.09799770 0.00000000)
    (4.00000000 -0.18244634 0.00000000)
    (4.00000000 0.31755366 0.00000000)
    (-1.00000000 0.40200230 0.00000000)
    (-1.00000000 -0.09799770 0.10000000)
    (4.00000000 -0.18244634 0.10000000)
    (4.00000000 0.31755366 0.10000000)
    (-1.00000000 0.40200230 0.10000000)
);

blocks
(
    hex (0 1 2 3 4 5 6 7) (200 20 1) simpleGrading (1 1 1)
);

edges
(
	polyLine 0 1
	(
		(-1.00000000 -0.09799770 0.00000000)
		(-0.98000000 -0.09799770 0.00000000)
		(-0.96000000 -0.09799770 0.00000000)
		(-0.94000000 -0.09799770 0.00000000)
		(-0.92000000 -0.09799770 0.00000000)
		(-0.90000000 -0.09799770 0.00000000)
		(-0.88000000 -0.09799770 0.00000000)
		(-0.86000000 -0.09799770 0.00000000)
		(-0.84000000 -0.09799770 0.00000000)
		(-0.82000000 -0.09799770 0.00000000)
		(-0.80000000 -0.09799770 0.00000000)
		(-0.78000000 -0.09799770 0.00000000)
		(-0.76000000 -0.09799770 0.00000000)
		(-0.74000000 -0.09799770 0.00000000)
		(-0.72000000 -0.09799770 0.00000000)
		(-0.70000000 -0.09799770 0.00000000)
		(-0.68000000 -0.09799770 0.00000000)
		(-0.66000000 -0.09799770 0.00000000)
		(-0.64000000 -0.09799770 0.00000000)
		(-0.62000000 -0.09799770 0.00000000)
		(-0.60000000 -0.09799770 0.00000000)
		(-0.58000000 -0.09799770 0.00000000)
		(-0.56000000 -0.09799770 0.00000000)
		(-0.54000000 -0.09799770 0.00000000)
		(-0.52000000 -0.09799770 0.00000000)
		(-0.50000000 -0.09799770 0.00000000)
		(-0.48000000 -0.09799770 0.00000000)
		(-0.46000000 -0.09799770 0.00000000)
		(-0.44000000 -0.09799770 0.00000000)
		(-0.42000000 -0.09799770 0.00000000)
		(-0.40000000 -0.09799770 0.00000000)
		(-0.38000000 -0.09799770 0.00000000)
		(-0.36000000 -0.09799770 0.00000000)
		(-0.34000000 -0.09799770 0.00000000)
		(-0.32000000 -0.09799770 0.00000000)
		(-0.30000000 -0.09799770 0.00000000)
		(-0.28000000 -0.09799770 0.00000000)
		(-0.26000000 -0.09799770 0.00000000)
		(-0.24000000 -0.09799770 0.00000000)
		(-0.22000000 -0.09799770 0.00000000)
		(-0.20000000 -0.09799770 0.00000000)
		(-0.18000000 -0.09799770 0.00000000)
		(-0.16000000 -0.09799770 0.00000000)
		(-0.14000000 -0.09799770 0.00000000)
		(-0.12000000 -0.09799770 0.00000000)
		(-0.10000000 -0.09799770 0.00000000)
		(-0.08162011 -0.09684268 0.00000000)
		(-0.06324022 -0.09337761 0.00000000)
		(-0.04486034 -0.08760249 0.00000000)
		(-0.02648045 -0.07951732 0.00000000)
		(-0.00810056 -0.06912211 0.00000000)
		(0.01027933 -0.05641685 0.00000000)
		(0.02865922 -0.04140154 0.00000000)
		(0.04703911 -0.02407619 0.00000000)
		(0.06541899 -0.00444079 0.00000000)
		(0.08379888 0.01750466 0.00000000)
		(0.10055866 0.04097679 0.00000000)
		(0.11731844 0.06408268 0.00000000)
		(0.13407821 0.08661584 0.00000000)
		(0.15083799 0.10837485 0.00000000)
		(0.16759777 0.12916525 0.00000000)
		(0.18435754 0.14880123 0.00000000)
		(0.20111732 0.16710728 0.00000000)
		(0.21787709 0.18391979 0.00000000)
		(0.23463687 0.19908850 0.00000000)
		(0.25139665 0.21247784 0.00000000)
		(0.26815642 0.22396814 0.00000000)
		(0.28491620 0.23345670 0.00000000)
		(0.30167598 0.24085872 0.00000000)
		(0.31843575 0.24610804 0.00000000)
		(0.33519553 0.24915774 0.00000000)
		(0.35195531 0.24998058 0.00000000)
		(0.36871508 0.24856918 0.00000000)
		(0.38547486 0.24493618 0.00000000)
		(0.40223464 0.23911404 0.00000000)
		(0.41899441 0.23115479 0.00000000)
		(0.43575419 0.22112957 0.00000000)
		(0.45251397 0.20912798 0.00000000)
		(0.46927374 0.19525729 0.00000000)
		(0.48603352 0.17964148 0.00000000)
		(0.50279330 0.16242009 0.00000000)
		(0.51955307 0.14374707 0.00000000)
		(0.53631285 0.12378929 0.00000000)
		(0.55307263 0.10272513 0.00000000)
		(0.56983240 0.08074285 0.00000000)
		(0.58659218 0.05803893 0.00000000)
		(0.60335196 0.03481628 0.00000000)
		(0.62011173 0.01128245 0.00000000)
		(0.63687151 -0.01235221 0.00000000)
		(0.65363128 -0.03587647 0.00000000)
		(0.67039106 -0.05908009 0.00000000)
		(0.68715084 -0.08175567 0.00000000)
		(0.70391061 -0.10370055 0.00000000)
		(0.72067039 -0.12471860 0.00000000)
		(0.73743017 -0.14462196 0.00000000)
		(0.75418994 -0.16323275 0.00000000)
		(0.77094972 -0.18038463 0.00000000)
		(0.78770950 -0.19592431 0.00000000)
		(0.80446927 -0.20971289 0.00000000)
		(0.82122905 -0.22162714 0.00000000)
		(0.83798883 -0.23156058 0.00000000)
		(0.85474860 -0.23942443 0.00000000)
		(0.87150838 -0.24514839 0.00000000)
		(0.88826816 -0.24868132 0.00000000)
		(0.90502793 -0.24999163 0.00000000)
		(0.92178771 -0.24906762 0.00000000)
		(0.93854749 -0.24591754 0.00000000)
		(0.95530726 -0.24056956 0.00000000)
		(0.97206704 -0.23307145 0.00000000)
		(0.98882682 -0.22349025 0.00000000)
		(1.00558659 -0.21191158 0.00000000)
		(1.02234637 -0.19843893 0.00000000)
		(1.03910615 -0.18319272 0.00000000)
		(1.05586592 -0.16630920 0.00000000)
		(1.07262570 -0.14793928 0.00000000)
		(1.08938547 -0.12824713 0.00000000)
		(1.10614525 -0.10740876 0.00000000)
		(1.12290503 -0.08561042 0.00000000)
		(1.13966480 -0.06304693 0.00000000)
		(1.15642458 -0.03991995 0.00000000)
		(1.17318436 -0.01643617 0.00000000)
		(1.18994413 0.00719450 0.00000000)
		(1.20670391 0.03076086 0.00000000)
		(1.22346369 0.05405231 0.00000000)
		(1.24022346 0.07686065 0.00000000)
		(1.25698324 0.09898204 0.00000000)
		(1.27374302 0.12021877 0.00000000)
		(1.29050279 0.14038104 0.00000000)
		(1.30726257 0.15928863 0.00000000)
		(1.32402235 0.17677257 0.00000000)
		(1.34078212 0.19267659 0.00000000)
		(1.35754190 0.20685854 0.00000000)
		(1.37430168 0.21919167 0.00000000)
		(1.39106145 0.22956575 0.00000000)
		(1.40782123 0.23788807 0.00000000)
		(1.42458101 0.24408424 0.00000000)
		(1.44134078 0.24809889 0.00000000)
		(1.45810056 0.24989612 0.00000000)
		(1.47486034 0.24945989 0.00000000)
		(1.49162011 0.24679408 0.00000000)
		(1.50837989 0.24192252 0.00000000)
		(1.52513966 0.23488876 0.00000000)
		(1.54189944 0.22575566 0.00000000)
		(1.55865922 0.21460485 0.00000000)
		(1.57541899 0.20153598 0.00000000)
		(1.59217877 0.18666587 0.00000000)
		(1.60893855 0.17012741 0.00000000)
		(1.62569832 0.15206842 0.00000000)
		(1.64245810 0.13265031 0.00000000)
		(1.65921788 0.11204662 0.00000000)
		(1.67597765 0.09044150 0.00000000)
		(1.69273743 0.06802805 0.00000000)
		(1.70949721 0.04500660 0.00000000)
		(1.72625698 0.02158289 0.00000000)
		(1.74301676 -0.00203372 0.00000000)
		(1.75977654 -0.02563214 0.00000000)
		(1.77653631 -0.04900148 0.00000000)
		(1.79329609 -0.07193286 0.00000000)
		(1.81005587 -0.09422134 0.00000000)
		(1.82681564 -0.11566770 0.00000000)
		(1.84357542 -0.13608028 0.00000000)
		(1.86033520 -0.15527662 0.00000000)
		(1.87709497 -0.17308516 0.00000000)
		(1.89385475 -0.18934674 0.00000000)
		(1.91061453 -0.20391601 0.00000000)
		(1.92737430 -0.21666276 0.00000000)
		(1.94413408 -0.22747307 0.00000000)
		(1.96089385 -0.23625031 0.00000000)
		(1.97765363 -0.24291604 0.00000000)
		(1.99441341 -0.24741069 0.00000000)
		(2.01117318 -0.24969408 0.00000000)
		(2.02793296 -0.24974581 0.00000000)
		(2.04469274 -0.24756541 0.00000000)
		(2.06145251 -0.24317237 0.00000000)
		(2.07821229 -0.23660595 0.00000000)
		(2.09497207 -0.22792484 0.00000000)
		(2.11173184 -0.21720663 0.00000000)
		(2.12849162 -0.20454712 0.00000000)
		(2.14525140 -0.19005944 0.00000000)
		(2.16201117 -0.17387310 0.00000000)
		(2.17877095 -0.15613274 0.00000000)
		(2.19553073 -0.13699693 0.00000000)
		(2.21229050 -0.11663670 0.00000000)
		(2.22905028 -0.09523402 0.00000000)
		(2.24581006 -0.07298017 0.00000000)
		(2.26256983 -0.05007406 0.00000000)
		(2.27932961 -0.02672040 0.00000000)
		(2.29608939 -0.00312793 0.00000000)
		(2.31284916 0.02049250 0.00000000)
		(2.32960894 0.04392977 0.00000000)
		(2.34636872 0.06697442 0.00000000)
		(2.36312849 0.08942047 0.00000000)
		(2.37988827 0.11106733 0.00000000)
		(2.39664804 0.13172151 0.00000000)
		(2.41340782 0.15119841 0.00000000)
		(2.43016760 0.16932396 0.00000000)
		(2.44692737 0.18593617 0.00000000)
		(2.46368715 0.20088655 0.00000000)
		(2.48044693 0.21404149 0.00000000)
		(2.49720670 0.22528341 0.00000000)
		(2.51396648 0.23451184 0.00000000)
		(2.53072626 0.24164429 0.00000000)
		(2.54748603 0.24661703 0.00000000)
		(2.56424581 0.24938560 0.00000000)
		(2.58100559 0.24992527 0.00000000)
		(2.59776536 0.24823120 0.00000000)
		(2.61452514 0.24431855 0.00000000)
		(2.63128492 0.23822227 0.00000000)
		(2.64804469 0.22999686 0.00000000)
		(2.66480447 0.21971582 0.00000000)
		(2.68156425 0.20747106 0.00000000)
		(2.69832402 0.19337200 0.00000000)
		(2.71508380 0.17754466 0.00000000)
		(2.73184358 0.16013050 0.00000000)
		(2.74860335 0.14128516 0.00000000)
		(2.76536313 0.12117707 0.00000000)
		(2.78212291 0.09998594 0.00000000)
		(2.79888268 0.07790119 0.00000000)
		(2.81564246 0.05512018 0.00000000)
		(2.83240223 0.03184653 0.00000000)
		(2.84916201 0.00828825 0.00000000)
		(2.86592179 -0.01534411 0.00000000)
		(2.88268156 -0.03883933 0.00000000)
		(2.89944134 -0.06198742 0.00000000)
		(2.91620112 -0.08458149 0.00000000)
		(2.93296089 -0.10641960 0.00000000)
		(2.95166480 -0.12086468 0.00000000)
		(2.97036872 -0.13378923 0.00000000)
		(2.98907263 -0.14519324 0.00000000)
		(3.00777654 -0.15507671 0.00000000)
		(3.02648045 -0.16343965 0.00000000)
		(3.04518436 -0.17028206 0.00000000)
		(3.06388827 -0.17560393 0.00000000)
		(3.08259218 -0.17940527 0.00000000)
		(3.10129609 -0.18168607 0.00000000)
		(3.12000000 -0.18244634 0.00000000)
		(3.14000000 -0.18244634 0.00000000)
		(3.16000000 -0.18244634 0.00000000)
		(3.18000000 -0.18244634 0.00000000)
		(3.20000000 -0.18244634 0.00000000)
		(3.22000000 -0.18244634 0.00000000)
		(3.24000000 -0.18244634 0.00000000)
		(3.26000000 -0.18244634 0.00000000)
		(3.28000000 -0.18244634 0.00000000)
		(3.30000000 -0.18244634 0.00000000)
		(3.32000000 -0.18244634 0.00000000)
		(3.34000000 -0.18244634 0.00000000)
		(3.36000000 -0.18244634 0.00000000)
		(3.38000000 -0.18244634 0.00000000)
		(3.40000000 -0.18244634 0.00000000)
		(3.42000000 -0.18244634 0.00000000)
		(3.44000000 -0.18244634 0.00000000)
		(3.46000000 -0.18244634 0.00000000)
		(3.48000000 -0.18244634 0.00000000)
		(3.50000000 -0.18244634 0.00000000)
		(3.52000000 -0.18244634 0.00000000)
		(3.54000000 -0.18244634 0.00000000)
		(3.56000000 -0.18244634 0.00000000)
		(3.58000000 -0.18244634 0.00000000)
		(3.60000000 -0.18244634 0.00000000)
		(3.62000000 -0.18244634 0.00000000)
		(3.64000000 -0.18244634 0.00000000)
		(3.66000000 -0.18244634 0.00000000)
		(3.68000000 -0.18244634 0.00000000)
		(3.70000000 -0.18244634 0.00000000)
		(3.72000000 -0.18244634 0.00000000)
		(3.74000000 -0.18244634 0.00000000)
		(3.76000000 -0.18244634 0.00000000)
		(3.78000000 -0.18244634 0.00000000)
		(3.80000000 -0.18244634 0.00000000)
		(3.82000000 -0.18244634 0.00000000)
		(3.84000000 -0.18244634 0.00000000)
		(3.86000000 -0.18244634 0.00000000)
		(3.88000000 -0.18244634 0.00000000)
		(3.90000000 -0.18244634 0.00000000)
		(3.92000000 -0.18244634 0.00000000)
		(3.94000000 -0.18244634 0.00000000)
		(3.96000000 -0.18244634 0.00000000)
		(3.98000000 -0.18244634 0.00000000)
		(4.00000000 -0.18244634 0.00000000)
	)
	polyLine 4 5
	(
		(-1.00000000 -0.09799770 0.10000000)
		(-0.98000000 -0.09799770 0.10000000)
		(-0.96000000 -0.09799770 0.10000000)
		(-0.94000000 -0.09799770 0.10000000)
		(-0.92000000 -0.09799770 0.10000000)
		(-0.90000000 -0.09799770 0.10000000)
		(-0.88000000 -0.09799770 0.10000000)
		(-0.86000000 -0.09799770 0.10000000)
		(-0.84000000 -0.09799770 0.10000000)
		(-0.82000000 -0.09799770 0.10000000)
		(-0.80000000 -0.09799770 0.10000000)
		(-0.78000000 -0.09799770 0.10000000)
		(-0.76000000 -0.09799770 0.10000000)
		(-0.74000000 -0.09799770 0.10000000)
		(-0.72000000 -0.09799770 0.10000000)
		(-0.70000000 -0.09799770 0.10000000)
		(-0.68000000 -0.09799770 0.10000000)
		(-0.66000000 -0.09799770 0.10000000)
		(-0.64000000 -0.09799770 0.10000000)
		(-0.62000000 -0.09799770 0.10000000)
		(-0.60000000 -0.09799770 0.10000000)
		(-0.58000000 -0.09799770 0.10000000)
		(-0.56000000 -0.09799770 0.10000000)
		(-0.54000000 -0.09799770 0.10000000)
		(-0.52000000 -0.09799770 0.10000000)
		(-0.50000000 -0.09799770 0.10000000)
		(-0.48000000 -0.09799770 0.10000000)
		(-0.46000000 -0.09799770 0.10000000)
		(-0.44000000 -0.09799770 0.10000000)
		(-0.42000000 -0.09799770 0.10000000)
		(-0.40000000 -0.09799770 0.10000000)
		(-0.38000000 -0.09799770 0.10000000)
		(-0.36000000 -0.09799770 0.10000000)
		(-0.34000000 -0.09799770 0.10000000)
		(-0.32000000 -0.09799770 0.10000000)
		(-0.30000000 -0.09799770 0.10000000)
		(-0.28000000 -0.09799770 0.10000000)
		(-0.26000000 -0.09799770 0.10000000)
		(-0.24000000 -0.09799770 0.10000000)
		(-0.22000000 -0.09799770 0.10000000)
		(-0.20000000 -0.09799770 0.10000000)
		(-0.18000000 -0.09799770 0.10000000)
		(-0.16000000 -0.09799770 0.10000000)
		(-0.14000000 -0.09799770 0.10000000)
		(-0.12000000 -0.09799770 0.10000000)
		(-0.10000000 -0.09799770 0.10000000)
		(-0.08162011 -0.09684268 0.10000000)
		(-0.06324022 -0.09337761 0.10000000)
		(-0.04486034 -0.08760249 0.10000000)
		(-0.02648045 -0.07951732 0.10000000)
		(-0.00810056 -0.06912211 0.10000000)
		(0.01027933 -0.05641685 0.10000000)
		(0.02865922 -0.04140154 0.10000000)
		(0.04703911 -0.02407619 0.10000000)
		(0.06541899 -0.00444079 0.10000000)
		(0.08379888 0.01750466 0.10000000)
		(0.10055866 0.04097679 0.10000000)
		(0.11731844 0.06408268 0.10000000)
		(0.13407821 0.08661584 0.10000000)
		(0.15083799 0.10837485 0.10000000)
		(0.16759777 0.12916525 0.10000000)
		(0.18435754 0.14880123 0.10000000)
		(0.20111732 0.16710728 0.10000000)
		(0.21787709 0.18391979 0.10000000)
		(0.23463687 0.19908850 0.10000000)
		(0.25139665 0.21247784 0.10000000)
		(0.26815642 0.22396814 0.10000000)
		(0.28491620 0.23345670 0.10000000)
		(0.30167598 0.24085872 0.10000000)
		(0.31843575 0.24610804 0.10000000)
		(0.33519553 0.24915774 0.10000000)
		(0.35195531 0.24998058 0.10000000)
		(0.36871508 0.24856918 0.10000000)
		(0.38547486 0.24493618 0.10000000)
		(0.40223464 0.23911404 0.10000000)
		(0.41899441 0.23115479 0.10000000)
		(0.43575419 0.22112957 0.10000000)
		(0.45251397 0.20912798 0.10000000)
		(0.46927374 0.19525729 0.10000000)
		(0.48603352 0.17964148 0.10000000)
		(0.50279330 0.16242009 0.10000000)
		(0.51955307 0.14374707 0.10000000)
		(0.53631285 0.12378929 0.10000000)
		(0.55307263 0.10272513 0.10000000)
		(0.56983240 0.08074285 0.10000000)
		(0.58659218 0.05803893 0.10000000)
		(0.60335196 0.03481628 0.10000000)
		(0.62011173 0.01128245 0.10000000)
		(0.63687151 -0.01235221 0.10000000)
		(0.65363128 -0.03587647 0.10000000)
		(0.67039106 -0.05908009 0.10000000)
		(0.68715084 -0.08175567 0.10000000)
		(0.70391061 -0.10370055 0.10000000)
		(0.72067039 -0.12471860 0.10000000)
		(0.73743017 -0.14462196 0.10000000)
		(0.75418994 -0.16323275 0.10000000)
		(0.77094972 -0.18038463 0.10000000)
		(0.78770950 -0.19592431 0.10000000)
		(0.80446927 -0.20971289 0.10000000)
		(0.82122905 -0.22162714 0.10000000)
		(0.83798883 -0.23156058 0.10000000)
		(0.85474860 -0.23942443 0.10000000)
		(0.87150838 -0.24514839 0.10000000)
		(0.88826816 -0.24868132 0.10000000)
		(0.90502793 -0.24999163 0.10000000)
		(0.92178771 -0.24906762 0.10000000)
		(0.93854749 -0.24591754 0.10000000)
		(0.95530726 -0.24056956 0.10000000)
		(0.97206704 -0.23307145 0.10000000)
		(0.98882682 -0.22349025 0.10000000)
		(1.00558659 -0.21191158 0.10000000)
		(1.02234637 -0.19843893 0.10000000)
		(1.03910615 -0.18319272 0.10000000)
		(1.05586592 -0.16630920 0.10000000)
		(1.07262570 -0.14793928 0.10000000)
		(1.08938547 -0.12824713 0.10000000)
		(1.10614525 -0.10740876 0.10000000)
		(1.12290503 -0.08561042 0.10000000)
		(1.13966480 -0.06304693 0.10000000)
		(1.15642458 -0.03991995 0.10000000)
		(1.17318436 -0.01643617 0.10000000)
		(1.18994413 0.00719450 0.10000000)
		(1.20670391 0.03076086 0.10000000)
		(1.22346369 0.05405231 0.10000000)
		(1.24022346 0.07686065 0.10000000)
		(1.25698324 0.09898204 0.10000000)
		(1.27374302 0.12021877 0.10000000)
		(1.29050279 0.14038104 0.10000000)
		(1.30726257 0.15928863 0.10000000)
		(1.32402235 0.17677257 0.10000000)
		(1.34078212 0.19267659 0.10000000)
		(1.35754190 0.20685854 0.10000000)
		(1.37430168 0.21919167 0.10000000)
		(1.39106145 0.22956575 0.10000000)
		(1.40782123 0.23788807 0.10000000)
		(1.42458101 0.24408424 0.10000000)
		(1.44134078 0.24809889 0.10000000)
		(1.45810056 0.24989612 0.10000000)
		(1.47486034 0.24945989 0.10000000)
		(1.49162011 0.24679408 0.10000000)
		(1.50837989 0.24192252 0.10000000)
		(1.52513966 0.23488876 0.10000000)
		(1.54189944 0.22575566 0.10000000)
		(1.55865922 0.21460485 0.10000000)
		(1.57541899 0.20153598 0.10000000)
		(1.59217877 0.18666587 0.10000000)
		(1.60893855 0.17012741 0.10000000)
		(1.62569832 0.15206842 0.10000000)
		(1.64245810 0.13265031 0.10000000)
		(1.65921788 0.11204662 0.10000000)
		(1.67597765 0.09044150 0.10000000)
		(1.69273743 0.06802805 0.10000000)
		(1.70949721 0.04500660 0.10000000)
		(1.72625698 0.02158289 0.10000000)
		(1.74301676 -0.00203372 0.10000000)
		(1.75977654 -0.02563214 0.10000000)
		(1.77653631 -0.04900148 0.10000000)
		(1.79329609 -0.07193286 0.10000000)
		(1.81005587 -0.09422134 0.10000000)
		(1.82681564 -0.11566770 0.10000000)
		(1.84357542 -0.13608028 0.10000000)
		(1.86033520 -0.15527662 0.10000000)
		(1.87709497 -0.17308516 0.10000000)
		(1.89385475 -0.18934674 0.10000000)
		(1.91061453 -0.20391601 0.10000000)
		(1.92737430 -0.21666276 0.10000000)
		(1.94413408 -0.22747307 0.10000000)
		(1.96089385 -0.23625031 0.10000000)
		(1.97765363 -0.24291604 0.10000000)
		(1.99441341 -0.24741069 0.10000000)
		(2.01117318 -0.24969408 0.10000000)
		(2.02793296 -0.24974581 0.10000000)
		(2.04469274 -0.24756541 0.10000000)
		(2.06145251 -0.24317237 0.10000000)
		(2.07821229 -0.23660595 0.10000000)
		(2.09497207 -0.22792484 0.10000000)
		(2.11173184 -0.21720663 0.10000000)
		(2.12849162 -0.20454712 0.10000000)
		(2.14525140 -0.19005944 0.10000000)
		(2.16201117 -0.17387310 0.10000000)
		(2.17877095 -0.15613274 0.10000000)
		(2.19553073 -0.13699693 0.10000000)
		(2.21229050 -0.11663670 0.10000000)
		(2.22905028 -0.09523402 0.10000000)
		(2.24581006 -0.07298017 0.10000000)
		(2.26256983 -0.05007406 0.10000000)
		(2.27932961 -0.02672040 0.10000000)
		(2.29608939 -0.00312793 0.10000000)
		(2.31284916 0.02049250 0.10000000)
		(2.32960894 0.04392977 0.10000000)
		(2.34636872 0.06697442 0.10000000)
		(2.36312849 0.08942047 0.10000000)
		(2.37988827 0.11106733 0.10000000)
		(2.39664804 0.13172151 0.10000000)
		(2.41340782 0.15119841 0.10000000)
		(2.43016760 0.16932396 0.10000000)
		(2.44692737 0.18593617 0.10000000)
		(2.46368715 0.20088655 0.10000000)
		(2.48044693 0.21404149 0.10000000)
		(2.49720670 0.22528341 0.10000000)
		(2.51396648 0.23451184 0.10000000)
		(2.53072626 0.24164429 0.10000000)
		(2.54748603 0.24661703 0.10000000)
		(2.56424581 0.24938560 0.10000000)
		(2.58100559 0.24992527 0.10000000)
		(2.59776536 0.24823120 0.10000000)
		(2.61452514 0.24431855 0.10000000)
		(2.63128492 0.23822227 0.10000000)
		(2.64804469 0.22999686 0.10000000)
		(2.66480447 0.21971582 0.10000000)
		(2.68156425 0.20747106 0.10000000)
		(2.69832402 0.19337200 0.10000000)
		(2.71508380 0.17754466 0.10000000)
		(2.73184358 0.16013050 0.10000000)
		(2.74860335 0.14128516 0.10000000)
		(2.76536313 0.12117707 0.10000000)
		(2.78212291 0.09998594 0.10000000)
		(2.79888268 0.07790119 0.10000000)
		(2.81564246 0.05512018 0.10000000)
		(2.83240223 0.03184653 0.10000000)
		(2.84916201 0.00828825 0.10000000)
		(2.86592179 -0.01534411 0.10000000)
		(2.88268156 -0.03883933 0.10000000)
		(2.89944134 -0.06198742 0.10000000)
		(2.91620112 -0.08458149 0.10000000)
		(2.93296089 -0.10641960 0.10000000)
		(2.95166480 -0.12086468 0.10000000)
		(2.97036872 -0.13378923 0.10000000)
		(2.98907263 -0.14519324 0.10000000)
		(3.00777654 -0.15507671 0.10000000)
		(3.02648045 -0.16343965 0.10000000)
		(3.04518436 -0.17028206 0.10000000)
		(3.06388827 -0.17560393 0.10000000)
		(3.08259218 -0.17940527 0.10000000)
		(3.10129609 -0.18168607 0.10000000)
		(3.12000000 -0.18244634 0.10000000)
		(3.14000000 -0.18244634 0.10000000)
		(3.16000000 -0.18244634 0.10000000)
		(3.18000000 -0.18244634 0.10000000)
		(3.20000000 -0.18244634 0.10000000)
		(3.22000000 -0.18244634 0.10000000)
		(3.24000000 -0.18244634 0.10000000)
		(3.26000000 -0.18244634 0.10000000)
		(3.28000000 -0.18244634 0.10000000)
		(3.30000000 -0.18244634 0.10000000)
		(3.32000000 -0.18244634 0.10000000)
		(3.34000000 -0.18244634 0.10000000)
		(3.36000000 -0.18244634 0.10000000)
		(3.38000000 -0.18244634 0.10000000)
		(3.40000000 -0.18244634 0.10000000)
		(3.42000000 -0.18244634 0.10000000)
		(3.44000000 -0.18244634 0.10000000)
		(3.46000000 -0.18244634 0.10000000)
		(3.48000000 -0.18244634 0.10000000)
		(3.50000000 -0.18244634 0.10000000)
		(3.52000000 -0.18244634 0.10000000)
		(3.54000000 -0.18244634 0.10000000)
		(3.56000000 -0.18244634 0.10000000)
		(3.58000000 -0.18244634 0.10000000)
		(3.60000000 -0.18244634 0.10000000)
		(3.62000000 -0.18244634 0.10000000)
		(3.64000000 -0.18244634 0.10000000)
		(3.66000000 -0.18244634 0.10000000)
		(3.68000000 -0.18244634 0.10000000)
		(3.70000000 -0.18244634 0.10000000)
		(3.72000000 -0.18244634 0.10000000)
		(3.74000000 -0.18244634 0.10000000)
		(3.76000000 -0.18244634 0.10000000)
		(3.78000000 -0.18244634 0.10000000)
		(3.80000000 -0.18244634 0.10000000)
		(3.82000000 -0.18244634 0.10000000)
		(3.84000000 -0.18244634 0.10000000)
		(3.86000000 -0.18244634 0.10000000)
		(3.88000000 -0.18244634 0.10000000)
		(3.90000000 -0.18244634 0.10000000)
		(3.92000000 -0.18244634 0.10000000)
		(3.94000000 -0.18244634 0.10000000)
		(3.96000000 -0.18244634 0.10000000)
		(3.98000000 -0.18244634 0.10000000)
		(4.00000000 -0.18244634 0.10000000)
	)
	polyLine 3 2
	(
		(-1.00000000 0.40200230 0.00000000)
		(-0.98000000 0.40205338 0.00000000)
		(-0.96000000 0.40210447 0.00000000)
		(-0.94000000 0.40215555 0.00000000)
		(-0.92000000 0.40220663 0.00000000)
		(-0.90000000 0.40225772 0.00000000)
		(-0.88000000 0.40230880 0.00000000)
		(-0.86000000 0.40235988 0.00000000)
		(-0.84000000 0.40241097 0.00000000)
		(-0.82000000 0.40246205 0.00000000)
		(-0.80000000 0.40251313 0.00000000)
		(-0.78000000 0.40256422 0.00000000)
		(-0.76000000 0.40261530 0.00000000)
		(-0.74000000 0.40266638 0.00000000)
		(-0.72000000 0.40271747 0.00000000)
		(-0.70000000 0.40276855 0.00000000)
		(-0.68000000 0.40281963 0.00000000)
		(-0.66000000 0.40287072 0.00000000)
		(-0.64000000 0.40292180 0.00000000)
		(-0.62000000 0.40297288 0.00000000)
		(-0.60000000 0.40302397 0.00000000)
		(-0.58000000 0.40307505 0.00000000)
		(-0.56000000 0.40312613 0.00000000)
		(-0.54000000 0.40317722 0.00000000)
		(-0.52000000 0.40322830 0.00000000)
		(-0.50000000 0.40327938 0.00000000)
		(-0.48000000 0.40333047 0.00000000)
		(-0.46000000 0.40338155 0.00000000)
		(-0.44000000 0.40343263 0.00000000)
		(-0.42000000 0.40348372 0.00000000)
		(-0.40000000 0.40353480 0.00000000)
		(-0.38000000 0.40358588 0.00000000)
		(-0.36000000 0.40363697 0.00000000)
		(-0.34000000 0.40368805 0.00000000)
		(-0.32000000 0.40373913 0.00000000)
		(-0.30000000 0.40379022 0.00000000)
		(-0.28000000 0.40384130 0.00000000)
		(-0.26000000 0.40389238 0.00000000)
		(-0.24000000 0.40394347 0.00000000)
		(-0.22000000 0.40399455 0.00000000)
		(-0.20000000 0.40404563 0.00000000)
		(-0.18000000 0.40409672 0.00000000)
		(-0.16000000 0.40414780 0.00000000)
		(-0.14000000 0.40419888 0.00000000)
		(-0.12000000 0.40424997 0.00000000)
		(-0.10000000 0.40430105 0.00000000)
		(-0.08162011 0.40358318 0.00000000)
		(-0.06324022 0.40553054 0.00000000)
		(-0.04486034 0.41014313 0.00000000)
		(-0.02648045 0.41742094 0.00000000)
		(-0.00810056 0.42736398 0.00000000)
		(0.01027933 0.43997224 0.00000000)
		(0.02865922 0.45524573 0.00000000)
		(0.04703911 0.47318444 0.00000000)
		(0.06541899 0.49378838 0.00000000)
		(0.08379888 0.51705755 0.00000000)
		(0.10055866 0.53993015 0.00000000)
		(0.11731844 0.56244587 0.00000000)
		(0.13407821 0.58440347 0.00000000)
		(0.15083799 0.60560671 0.00000000)
		(0.16759777 0.62586608 0.00000000)
		(0.18435754 0.64500051 0.00000000)
		(0.20111732 0.66283898 0.00000000)
		(0.21787709 0.67922207 0.00000000)
		(0.23463687 0.69400333 0.00000000)
		(0.25139665 0.70705068 0.00000000)
		(0.26815642 0.71824749 0.00000000)
		(0.28491620 0.72749369 0.00000000)
		(0.30167598 0.73470664 0.00000000)
		(0.31843575 0.73982188 0.00000000)
		(0.33519553 0.74279369 0.00000000)
		(0.35195531 0.74359551 0.00000000)
		(0.36871508 0.74222017 0.00000000)
		(0.38547486 0.73867996 0.00000000)
		(0.40223464 0.73300652 0.00000000)
		(0.41899441 0.72525057 0.00000000)
		(0.43575419 0.71548142 0.00000000)
		(0.45251397 0.70378638 0.00000000)
		(0.46927374 0.69026998 0.00000000)
		(0.48603352 0.67505303 0.00000000)
		(0.50279330 0.65827152 0.00000000)
		(0.51955307 0.64007544 0.00000000)
		(0.53631285 0.62062743 0.00000000)
		(0.55307263 0.60010130 0.00000000)
		(0.56983240 0.57868050 0.00000000)
		(0.58659218 0.55655648 0.00000000)
		(0.60335196 0.53392699 0.00000000)
		(0.62011173 0.51099427 0.00000000)
		(0.63687151 0.48796329 0.00000000)
		(0.65363128 0.46503989 0.00000000)
		(0.67039106 0.44242895 0.00000000)
		(0.68715084 0.42033256 0.00000000)
		(0.70391061 0.39894820 0.00000000)
		(0.72067039 0.37846700 0.00000000)
		(0.73743017 0.35907201 0.00000000)
		(0.75418994 0.34093658 0.00000000)
		(0.77094972 0.32422280 0.00000000)
		(0.78770950 0.30908004 0.00000000)
		(0.80446927 0.29564365 0.00000000)
		(0.82122905 0.28403371 0.00000000)
		(0.83798883 0.27435400 0.00000000)
		(0.85474860 0.26669101 0.00000000)
		(0.87150838 0.26111325 0.00000000)
		(0.88826816 0.25767056 0.00000000)
		(0.90502793 0.25639372 0.00000000)
		(0.92178771 0.25729413 0.00000000)
		(0.93854749 0.26036374 0.00000000)
		(0.95530726 0.26557513 0.00000000)
		(0.97206704 0.27288172 0.00000000)
		(0.98882682 0.28221819 0.00000000)
		(1.00558659 0.29350112 0.00000000)
		(1.02234637 0.30662964 0.00000000)
		(1.03910615 0.32148644 0.00000000)
		(1.05586592 0.33793871 0.00000000)
		(1.07262570 0.35583943 0.00000000)
		(1.08938547 0.37502859 0.00000000)
		(1.10614525 0.39533470 0.00000000)
		(1.12290503 0.41657626 0.00000000)
		(1.13966480 0.43856343 0.00000000)
		(1.15642458 0.46109970 0.00000000)
		(1.17318436 0.48398364 0.00000000)
		(1.18994413 0.50701073 0.00000000)
		(1.20670391 0.52997516 0.00000000)
		(1.22346369 0.55267169 0.00000000)
		(1.24022346 0.57489745 0.00000000)
		(1.25698324 0.59645382 0.00000000)
		(1.27374302 0.61714812 0.00000000)
		(1.29050279 0.63679539 0.00000000)
		(1.30726257 0.65522004 0.00000000)
		(1.32402235 0.67225740 0.00000000)
		(1.34078212 0.68775519 0.00000000)
		(1.35754190 0.70157490 0.00000000)
		(1.37430168 0.71359302 0.00000000)
		(1.39106145 0.72370213 0.00000000)
		(1.40782123 0.73181187 0.00000000)
		(1.42458101 0.73784978 0.00000000)
		(1.44134078 0.74176188 0.00000000)
		(1.45810056 0.74351321 0.00000000)
		(1.47486034 0.74308812 0.00000000)
		(1.49162011 0.74049040 0.00000000)
		(1.50837989 0.73574328 0.00000000)
		(1.52513966 0.72888918 0.00000000)
		(1.54189944 0.71998935 0.00000000)
		(1.55865922 0.70912336 0.00000000)
		(1.57541899 0.69638830 0.00000000)
		(1.59217877 0.68189800 0.00000000)
		(1.60893855 0.66578197 0.00000000)
		(1.62569832 0.64818425 0.00000000)
		(1.64245810 0.62926212 0.00000000)
		(1.65921788 0.60918469 0.00000000)
		(1.67597765 0.58813142 0.00000000)
		(1.69273743 0.56629046 0.00000000)
		(1.70949721 0.54385703 0.00000000)
		(1.72625698 0.52103161 0.00000000)
		(1.74301676 0.49801823 0.00000000)
		(1.75977654 0.47502256 0.00000000)
		(1.77653631 0.45225013 0.00000000)
		(1.79329609 0.42990446 0.00000000)
		(1.81005587 0.40818528 0.00000000)
		(1.82681564 0.38728671 0.00000000)
		(1.84357542 0.36739552 0.00000000)
		(1.86033520 0.34868950 0.00000000)
		(1.87709497 0.33133583 0.00000000)
		(1.89385475 0.31548961 0.00000000)
		(1.91061453 0.30129247 0.00000000)
		(1.92737430 0.28887130 0.00000000)
		(1.94413408 0.27833711 0.00000000)
		(1.96089385 0.26978406 0.00000000)
		(1.97765363 0.26328858 0.00000000)
		(1.99441341 0.25890874 0.00000000)
		(2.01117318 0.25668367 0.00000000)
		(2.02793296 0.25663326 0.00000000)
		(2.04469274 0.25875797 0.00000000)
		(2.06145251 0.26303881 0.00000000)
		(2.07821229 0.26943750 0.00000000)
		(2.09497207 0.27789688 0.00000000)
		(2.11173184 0.28834132 0.00000000)
		(2.12849162 0.30067748 0.00000000)
		(2.14525140 0.31479510 0.00000000)
		(2.16201117 0.33056801 0.00000000)
		(2.17877095 0.34785524 0.00000000)
		(2.19553073 0.36650228 0.00000000)
		(2.21229050 0.38634246 0.00000000)
		(2.22905028 0.40719847 0.00000000)
		(2.24581006 0.42888390 0.00000000)
		(2.26256983 0.45120494 0.00000000)
		(2.27932961 0.47396210 0.00000000)
		(2.29608939 0.49695196 0.00000000)
		(2.31284916 0.51996907 0.00000000)
		(2.32960894 0.54280770 0.00000000)
		(2.34636872 0.56526374 0.00000000)
		(2.36312849 0.58713647 0.00000000)
		(2.37988827 0.60823042 0.00000000)
		(2.39664804 0.62835704 0.00000000)
		(2.41340782 0.64733646 0.00000000)
		(2.43016760 0.66499905 0.00000000)
		(2.44692737 0.68118694 0.00000000)
		(2.46368715 0.69575545 0.00000000)
		(2.48044693 0.70857438 0.00000000)