/*--------------------------------*- C++ -*----------------------------------*\\
/*--------------------------------*- C++ -*----------------------------------*\\
| =========                 |                                                 |
| \\\\      /  F ield         | OpenFOAM: The Open Source CFD Toolbox           |
|  \\\\    /   O peration     | Version:  v2012                                 |
|   \\\\  /    A nd           | Website:  www.openfoam.com                      |
|    \\\\/     M anipulation  |                                                 |
\\*---------------------------------------------------------------------------*/
FoamFile
{
    version     2.0;
    format      ascii;
    class       dictionary;
    object      blockMeshDict;
}
// * * * * * * * * * * * * * * * * * * * * * * * * * * * * * * * * * * * * * //

scale   0.01;

xmin -1;
xmax 5;
ymin 0;
ymax 0.5;
zmin 0;
zmax 0.1;

vertices
(
    (-1.00000000 0.11542806 0.00000000)
    (4.00000000 -0.03413367 0.00000000)
    (4.00000000 0.46586633 0.00000000)
    (-1.00000000 0.61542806 0.00000000)
    (-1.00000000 0.11542806 0.10000000)
    (4.00000000 -0.03413367 0.10000000)
    (4.00000000 0.46586633 0.10000000)
    (-1.00000000 0.61542806 0.10000000)
);

blocks
(
    hex (0 1 2 3 4 5 6 7) (200 20 1) simpleGrading (1 1 1)
);

edges
(
	polyLine 0 1
	(
		(-1.00000000 0.11542806 0.00000000)
		(-0.98000000 0.11542806 0.00000000)
		(-0.96000000 0.11542806 0.00000000)
		(-0.94000000 0.11542806 0.00000000)
		(-0.92000000 0.11542806 0.00000000)
		(-0.90000000 0.11542806 0.00000000)
		(-0.88000000 0.11542806 0.00000000)
		(-0.86000000 0.11542806 0.00000000)
		(-0.84000000 0.11542806 0.00000000)
		(-0.82000000 0.11542806 0.00000000)
		(-0.80000000 0.11542806 0.00000000)
		(-0.78000000 0.11542806 0.00000000)
		(-0.76000000 0.11542806 0.00000000)
		(-0.74000000 0.11542806 0.00000000)
		(-0.72000000 0.11542806 0.00000000)
		(-0.70000000 0.11542806 0.00000000)
		(-0.68000000 0.11542806 0.00000000)
		(-0.66000000 0.11542806 0.00000000)
		(-0.64000000 0.11542806 0.00000000)
		(-0.62000000 0.11542806 0.00000000)
		(-0.60000000 0.11542806 0.00000000)
		(-0.58000000 0.11542806 0.00000000)
		(-0.56000000 0.11542806 0.00000000)
		(-0.54000000 0.11542806 0.00000000)
		(-0.52000000 0.11542806 0.00000000)
		(-0.50000000 0.11542806 0.00000000)
		(-0.48000000 0.11542806 0.00000000)
		(-0.46000000 0.11542806 0.00000000)
		(-0.44000000 0.11542806 0.00000000)
		(-0.42000000 0.11542806 0.00000000)
		(-0.40000000 0.11542806 0.00000000)
		(-0.38000000 0.11542806 0.00000000)
		(-0.36000000 0.11542806 0.00000000)
		(-0.34000000 0.11542806 0.00000000)
		(-0.32000000 0.11542806 0.00000000)
		(-0.30000000 0.11542806 0.00000000)
		(-0.28000000 0.11542806 0.00000000)
		(-0.26000000 0.11542806 0.00000000)
		(-0.24000000 0.11542806 0.00000000)
		(-0.22000000 0.11542806 0.00000000)
		(-0.20000000 0.11542806 0.00000000)
		(-0.18000000 0.11542806 0.00000000)
		(-0.16000000 0.11542806 0.00000000)
		(-0.14000000 0.11542806 0.00000000)
		(-0.12000000 0.11542806 0.00000000)
		(-0.10000000 0.11542806 0.00000000)
		(-0.08162011 0.11478779 0.00000000)
		(-0.06324022 0.11286699 0.00000000)
		(-0.04486034 0.10966566 0.00000000)
		(-0.02648045 0.10518380 0.00000000)
		(-0.00810056 0.09942140 0.00000000)
		(0.01027933 0.09237847 0.00000000)
		(0.02865922 0.08405501 0.00000000)
		(0.04703911 0.07445102 0.00000000)
		(0.06541899 0.06356649 0.00000000)
		(0.08379888 0.05140143 0.00000000)
		(0.10055866 0.03798092 0.00000000)
		(0.11731844 0.02444733 0.00000000)
		(0.13407821 0.01084097 0.00000000)
		(0.15083799 -0.00279767 0.00000000)
		(0.16759777 -0.01642797 0.00000000)
		(0.18435754 -0.03000938 0.00000000)
		(0.20111732 -0.04350144 0.00000000)
		(0.21787709 -0.05686400 0.00000000)
		(0.23463687 -0.07005728 0.00000000)
		(0.25139665 -0.08304200 0.00000000)
		(0.26815642 -0.09577951 0.00000000)
		(0.28491620 -0.10823189 0.00000000)
		(0.30167598 -0.12036206 0.00000000)
		(0.31843575 -0.13213392 0.00000000)
		(0.33519553 -0.14351242 0.00000000)
		(0.35195531 -0.15446369 0.00000000)
		(0.36871508 -0.16495512 0.00000000)
		(0.38547486 -0.17495549 0.00000000)
		(0.40223464 -0.18443502 0.00000000)
		(0.41899441 -0.19336549 0.00000000)
		(0.43575419 -0.20172032 0.00000000)
		(0.45251397 -0.20947464 0.00000000)
		(0.46927374 -0.21660535 0.00000000)
		(0.48603352 -0.22309124 0.00000000)
		(0.50279330 -0.22891299 0.00000000)
		(0.51955307 -0.23405328 0.00000000)
		(0.53631285 -0.23849679 0.00000000)
		(0.55307263 -0.24223031 0.00000000)
		(0.56983240 -0.24524272 0.00000000)
		(0.58659218 -0.24752504 0.00000000)
		(0.60335196 -0.24907050 0.00000000)
		(0.62011173 -0.24987447 0.00000000)
		(0.63687151 -0.24993458 0.00000000)
		(0.65363128 -0.24925064 0.00000000)
		(0.67039106 -0.24782469 0.00000000)
		(0.68715084 -0.24566097 0.00000000)
		(0.70391061 -0.24276593 0.00000000)
		(0.72067039 -0.23914818 0.00000000)
		(0.73743017 -0.23481849 0.00000000)
		(0.75418994 -0.22978976 0.00000000)
		(0.77094972 -0.22407695 0.00000000)
		(0.78770950 -0.21769707 0.00000000)
		(0.80446927 -0.21066911 0.00000000)
		(0.82122905 -0.20301399 0.00000000)
		(0.83798883 -0.19475451 0.00000000)
		(0.85474860 -0.18591525 0.00000000)
		(0.87150838 -0.17652253 0.00000000)
		(0.88826816 -0.16660431 0.00000000)
		(0.90502793 -0.15619011 0.00000000)
		(0.92178771 -0.14531093 0.00000000)
		(0.93854749 -0.13399917 0.00000000)
		(0.95530726 -0.12228850 0.00000000)
		(0.97206704 -0.11021378 0.00000000)
		(0.98882682 -0.09781096 0.00000000)
		(1.00558659 -0.08511695 0.00000000)
		(1.02234637 -0.07216956 0.00000000)
		(1.03910615 -0.05900732 0.00000000)
		(1.05586592 -0.04566941 0.00000000)
		(1.07262570 -0.03219555 0.00000000)
		(1.08938547 -0.01862585 0.00000000)
		(1.10614525 -0.00500069 0.00000000)
		(1.12290503 0.00863935 0.00000000)
		(1.13966480 0.02225367 0.00000000)
		(1.15642458 0.03580174 0.00000000)
		(1.17318436 0.04924324 0.00000000)
		(1.18994413 0.06253813 0.00000000)
		(1.20670391 0.07564686 0.00000000)
		(1.22346369 0.08853038 0.00000000)
		(1.24022346 0.10115035 0.00000000)
		(1.25698324 0.11346920 0.00000000)
		(1.27374302 0.12545026 0.00000000)
		(1.29050279 0.13705786 0.00000000)
		(1.30726257 0.14825743 0.00000000)
		(1.32402235 0.15901565 0.00000000)
		(1.34078212 0.16930049 0.00000000)
		(1.35754190 0.17908132 0.00000000)
		(1.37430168 0.18832904 0.00000000)
		(1.39106145 0.19701610 0.00000000)
		(1.40782123 0.20511665 0.00000000)
		(1.42458101 0.21260658 0.00000000)
		(1.44134078 0.21946358 0.00000000)
		(1.45810056 0.22566725 0.00000000)
		(1.47486034 0.23119911 0.00000000)
		(1.49162011 0.23604270 0.00000000)
		(1.50837989 0.24018360 0.00000000)
		(1.52513966 0.24360948 0.00000000)
		(1.54189944 0.24631014 0.00000000)
		(1.55865922 0.24827755 0.00000000)
		(1.57541899 0.24950583 0.00000000)
		(1.59217877 0.24999135 0.00000000)
		(1.60893855 0.24973265 0.00000000)
		(1.62569832 0.24873051 0.00000000)
		(1.64245810 0.24698790 0.00000000)
		(1.65921788 0.24451002 0.00000000)
		(1.67597765 0.24130423 0.00000000)
		(1.69273743 0.23738010 0.00000000)
		(1.70949721 0.23274929 0.00000000)
		(1.72625698 0.22742559 0.00000000)
		(1.74301676 0.22142485 0.00000000)
		(1.75977654 0.21476494 0.00000000)
		(1.77653631 0.20746568 0.00000000)
		(1.79329609 0.19954880 0.00000000)
		(1.81005587 0.19103786 0.00000000)
		(1.82681564 0.18195822 0.00000000)
		(1.84357542 0.17233689 0.00000000)
		(1.86033520 0.16220252 0.00000000)
		(1.87709497 0.15158528 0.00000000)
		(1.89385475 0.14051677 0.00000000)
		(1.91061453 0.12902995 0.00000000)
		(1.92737430 0.11715901 0.00000000)
		(1.94413408 0.10493930 0.00000000)
		(1.96089385 0.09240718 0.00000000)
		(1.97765363 0.07959996 0.00000000)
		(1.99441341 0.06655579 0.00000000)
		(2.01117318 0.05331347 0.00000000)
		(2.02793296 0.03991245 0.00000000)
		(2.04469274 0.02639260 0.00000000)
		(2.06145251 0.01279419 0.00000000)
		(2.07821229 -0.00084231 0.00000000)
		(2.09497207 -0.01447631 0.00000000)
		(2.11173184 -0.02806721 0.00000000)
		(2.12849162 -0.04157455 0.00000000)
		(2.14525140 -0.05495813 0.00000000)
		(2.16201117 -0.06817810 0.00000000)
		(2.17877095 -0.08119510 0.00000000)
		(2.19553073 -0.09397039 0.00000000)
		(2.21229050 -0.10646593 0.00000000)
		(2.22905028 -0.11864453 0.00000000)
		(2.24581006 -0.13046993 0.00000000)
		(2.26256983 -0.14190692 0.00000000)
		(2.27932961 -0.15292146 0.00000000)
		(2.29608939 -0.16348075 0.00000000)
		(2.31284916 -0.17355337 0.00000000)
		(2.32960894 -0.18310932 0.00000000)
		(2.34636872 -0.19212017 0.00000000)
		(2.36312849 -0.20055908 0.00000000)
		(2.37988827 -0.20840093 0.00000000)
		(2.39664804 -0.21562238 0.00000000)
		(2.41340782 -0.22220192 0.00000000)
		(2.43016760 -0.22811998 0.00000000)
		(2.44692737 -0.23335893 0.00000000)
		(2.46368715 -0.23790318 0.00000000)
		(2.48044693 -0.24173920 0.00000000)
		(2.49720670 -0.24485557 0.00000000)
		(2.51396648 -0.24724301 0.00000000)
		(2.53072626 -0.24889442 0.00000000)
		(2.54748603 -0.24980487 0.00000000)
		(2.56424581 -0.24997167 0.00000000)
		(2.58100559 -0.24939430 0.00000000)
		(2.59776536 -0.24807450 0.00000000)
		(2.61452514 -0.24601618 0.00000000)
		(2.63128492 -0.24322549 0.00000000)
		(2.64804469 -0.23971072 0.00000000)
		(2.66480447 -0.23548234 0.00000000)
		(2.68156425 -0.23055293 0.00000000)
		(2.69832402 -0.22493718 0.00000000)
		(2.71508380 -0.21865179 0.00000000)
		(2.73184358 -0.21171548 0.00000000)
		(2.74860335 -0.20414891 0.00000000)
		(2.76536313 -0.19597459 0.00000000)
		(2.78212291 -0.18721686 0.00000000)
		(2.79888268 -0.17790179 0.00000000)
		(2.81564246 -0.16805711 0.00000000)
		(2.83240223 -0.15771213 0.00000000)
		(2.84916201 -0.14689764 0.00000000)
		(2.86592179 -0.13564585 0.00000000)
		(2.88268156 -0.12399024 0.00000000)
		(2.89944134 -0.11196552 0.00000000)
		(2.91620112 -0.09960748 0.00000000)
		(2.93296089 -0.08695292 0.00000000)
		(2.95166480 -0.07691726 0.00000000)
		(2.97036872 -0.06793799 0.00000000)
		(2.98907263 -0.06001510 0.00000000)
		(3.00777654 -0.05314860 0.00000000)
		(3.02648045 -0.04733848 0.00000000)
		(3.04518436 -0.04258475 0.00000000)
		(3.06388827 -0.03888741 0.00000000)
		(3.08259218 -0.03624644 0.00000000)
		(3.10129609 -0.03466187 0.00000000)
		(3.12000000 -0.03413367 0.00000000)
		(3.14000000 -0.03413367 0.00000000)
		(3.16000000 -0.03413367 0.00000000)
		(3.18000000 -0.03413367 0.00000000)
		(3.20000000 -0.03413367 0.00000000)
		(3.22000000 -0.03413367 0.00000000)
		(3.24000000 -0.03413367 0.00000000)
		(3.26000000 -0.03413367 0.00000000)
		(3.28000000 -0.03413367 0.00000000)
		(3.30000000 -0.03413367 0.00000000)
		(3.32000000 -0.03413367 0.00000000)
		(3.34000000 -0.03413367 0.00000000)
		(3.36000000 -0.03413367 0.00000000)
		(3.38000000 -0.03413367 0.00000000)
		(3.40000000 -0.03413367 0.00000000)
		(3.42000000 -0.03413367 0.00000000)
		(3.44000000 -0.03413367 0.00000000)
		(3.46000000 -0.03413367 0.00000000)
		(3.48000000 -0.03413367 0.00000000)
		(3.50000000 -0.03413367 0.00000000)
		(3.52000000 -0.03413367 0.00000000)
		(3.54000000 -0.03413367 0.00000000)
		(3.56000000 -0.03413367 0.00000000)
		(3.58000000 -0.03413367 0.00000000)
		(3.60000000 -0.03413367 0.00000000)
		(3.62000000 -0.03413367 0.00000000)
		(3.64000000 -0.03413367 0.00000000)
		(3.66000000 -0.03413367 0.00000000)
		(3.68000000 -0.03413367 0.00000000)
		(3.70000000 -0.03413367 0.00000000)
		(3.72000000 -0.03413367 0.00000000)
		(3.74000000 -0.03413367 0.00000000)
		(3.76000000 -0.03413367 0.00000000)
		(3.78000000 -0.03413367 0.00000000)
		(3.80000000 -0.03413367 0.00000000)
		(3.82000000 -0.03413367 0.00000000)
		(3.84000000 -0.03413367 0.00000000)
		(3.86000000 -0.03413367 0.00000000)
		(3.88000000 -0.03413367 0.00000000)
		(3.90000000 -0.03413367 0.00000000)
		(3.92000000 -0.03413367 0.00000000)
		(3.94000000 -0.03413367 0.00000000)
		(3.96000000 -0.03413367 0.00000000)
		(3.98000000 -0.03413367 0.00000000)
		(4.00000000 -0.03413367 0.00000000)
	)
	polyLine 4 5
	(
		(-1.00000000 0.11542806 0.10000000)
		(-0.98000000 0.11542806 0.10000000)
		(-0.96000000 0.11542806 0.10000000)
		(-0.94000000 0.11542806 0.10000000)
		(-0.92000000 0.11542806 0.10000000)
		(-0.90000000 0.11542806 0.10000000)
		(-0.88000000 0.11542806 0.10000000)
		(-0.86000000 0.11542806 0.10000000)
		(-0.84000000 0.11542806 0.10000000)
		(-0.82000000 0.11542806 0.10000000)
		(-0.80000000 0.11542806 0.10000000)
		(-0.78000000 0.11542806 0.10000000)
		(-0.76000000 0.11542806 0.10000000)
		(-0.74000000 0.11542806 0.10000000)
		(-0.72000000 0.11542806 0.10000000)
		(-0.70000000 0.11542806 0.10000000)
		(-0.68000000 0.11542806 0.10000000)
		(-0.66000000 0.11542806 0.10000000)
		(-0.64000000 0.11542806 0.10000000)
		(-0.62000000 0.11542806 0.10000000)
		(-0.60000000 0.11542806 0.10000000)
		(-0.58000000 0.11542806 0.10000000)
		(-0.56000000 0.11542806 0.10000000)
		(-0.54000000 0.11542806 0.10000000)
		(-0.52000000 0.11542806 0.10000000)
		(-0.50000000 0.11542806 0.10000000)
		(-0.48000000 0.11542806 0.10000000)
		(-0.46000000 0.11542806 0.10000000)
		(-0.44000000 0.11542806 0.10000000)
		(-0.42000000 0.11542806 0.10000000)
		(-0.40000000 0.11542806 0.10000000)
		(-0.38000000 0.11542806 0.10000000)
		(-0.36000000 0.11542806 0.10000000)
		(-0.34000000 0.11542806 0.10000000)
		(-0.32000000 0.11542806 0.10000000)
		(-0.30000000 0.11542806 0.10000000)
		(-0.28000000 0.11542806 0.10000000)
		(-0.26000000 0.11542806 0.10000000)
		(-0.24000000 0.11542806 0.10000000)
		(-0.22000000 0.11542806 0.10000000)
		(-0.20000000 0.11542806 0.10000000)
		(-0.18000000 0.11542806 0.10000000)
		(-0.16000000 0.11542806 0.10000000)
		(-0.14000000 0.11542806 0.10000000)
		(-0.12000000 0.11542806 0.10000000)
		(-0.10000000 0.11542806 0.10000000)
		(-0.08162011 0.11478779 0.10000000)
		(-0.06324022 0.11286699 0.10000000)
		(-0.04486034 0.10966566 0.10000000)
		(-0.02648045 0.10518380 0.10000000)
		(-0.00810056 0.09942140 0.10000000)
		(0.01027933 0.09237847 0.10000000)
		(0.02865922 0.08405501 0.10000000)
		(0.04703911 0.07445102 0.10000000)
		(0.06541899 0.06356649 0.10000000)
		(0.08379888 0.05140143 0.10000000)
		(0.10055866 0.03798092 0.10000000)
		(0.11731844 0.02444733 0.10000000)
		(0.13407821 0.01084097 0.10000000)
		(0.15083799 -0.00279767 0.10000000)
		(0.16759777 -0.01642797 0.10000000)
		(0.18435754 -0.03000938 0.10000000)
		(0.20111732 -0.04350144 0.10000000)
		(0.21787709 -0.05686400 0.10000000)
		(0.23463687 -0.07005728 0.10000000)
		(0.25139665 -0.08304200 0.10000000)
		(0.26815642 -0.09577951 0.10000000)
		(0.28491620 -0.10823189 0.10000000)
		(0.30167598 -0.12036206 0.10000000)
		(0.31843575 -0.13213392 0.10000000)
		(0.33519553 -0.14351242 0.10000000)
		(0.35195531 -0.15446369 0.10000000)
		(0.36871508 -0.16495512 0.10000000)
		(0.38547486 -0.17495549 0.10000000)
		(0.40223464 -0.18443502 0.10000000)
		(0.41899441 -0.19336549 0.10000000)
		(0.43575419 -0.20172032 0.10000000)
		(0.45251397 -0.20947464 0.10000000)
		(0.46927374 -0.21660535 0.10000000)
		(0.48603352 -0.22309124 0.10000000)
		(0.50279330 -0.22891299 0.10000000)
		(0.51955307 -0.23405328 0.10000000)
		(0.53631285 -0.23849679 0.10000000)
		(0.55307263 -0.24223031 0.10000000)
		(0.56983240 -0.24524272 0.10000000)
		(0.58659218 -0.24752504 0.10000000)
		(0.60335196 -0.24907050 0.10000000)
		(0.62011173 -0.24987447 0.10000000)
		(0.63687151 -0.24993458 0.10000000)
		(0.65363128 -0.24925064 0.10000000)
		(0.67039106 -0.24782469 0.10000000)
		(0.68715084 -0.24566097 0.10000000)
		(0.70391061 -0.24276593 0.10000000)
		(0.72067039 -0.23914818 0.10000000)
		(0.73743017 -0.23481849 0.10000000)
		(0.75418994 -0.22978976 0.10000000)
		(0.77094972 -0.22407695 0.10000000)
		(0.78770950 -0.21769707 0.10000000)
		(0.80446927 -0.21066911 0.10000000)
		(0.82122905 -0.20301399 0.10000000)
		(0.83798883 -0.19475451 0.10000000)
		(0.85474860 -0.18591525 0.10000000)
		(0.87150838 -0.17652253 0.10000000)
		(0.88826816 -0.16660431 0.10000000)
		(0.90502793 -0.15619011 0.10000000)
		(0.92178771 -0.14531093 0.10000000)
		(0.93854749 -0.13399917 0.10000000)
		(0.95530726 -0.12228850 0.10000000)
		(0.97206704 -0.11021378 0.10000000)
		(0.98882682 -0.09781096 0.10000000)
		(1.00558659 -0.08511695 0.10000000)
		(1.02234637 -0.07216956 0.10000000)
		(1.03910615 -0.05900732 0.10000000)
		(1.05586592 -0.04566941 0.10000000)
		(1.07262570 -0.03219555 0.10000000)
		(1.08938547 -0.01862585 0.10000000)
		(1.10614525 -0.00500069 0.10000000)
		(1.12290503 0.00863935 0.10000000)
		(1.13966480 0.02225367 0.10000000)
		(1.15642458 0.03580174 0.10000000)
		(1.17318436 0.04924324 0.10000000)
		(1.18994413 0.06253813 0.10000000)
		(1.20670391 0.07564686 0.10000000)
		(1.22346369 0.08853038 0.10000000)
		(1.24022346 0.10115035 0.10000000)
		(1.25698324 0.11346920 0.10000000)
		(1.27374302 0.12545026 0.10000000)
		(1.29050279 0.13705786 0.10000000)
		(1.30726257 0.14825743 0.10000000)
		(1.32402235 0.15901565 0.10000000)
		(1.34078212 0.16930049 0.10000000)
		(1.35754190 0.17908132 0.10000000)
		(1.37430168 0.18832904 0.10000000)
		(1.39106145 0.19701610 0.10000000)
		(1.40782123 0.20511665 0.10000000)
		(1.42458101 0.21260658 0.10000000)
		(1.44134078 0.21946358 0.10000000)
		(1.45810056 0.22566725 0.10000000)
		(1.47486034 0.23119911 0.10000000)
		(1.49162011 0.23604270 0.10000000)
		(1.50837989 0.24018360 0.10000000)
		(1.52513966 0.24360948 0.10000000)
		(1.54189944 0.24631014 0.10000000)
		(1.55865922 0.24827755 0.10000000)
		(1.57541899 0.24950583 0.10000000)
		(1.59217877 0.24999135 0.10000000)
		(1.60893855 0.24973265 0.10000000)
		(1.62569832 0.24873051 0.10000000)
		(1.64245810 0.24698790 0.10000000)
		(1.65921788 0.24451002 0.10000000)
		(1.67597765 0.24130423 0.10000000)
		(1.69273743 0.23738010 0.10000000)
		(1.70949721 0.23274929 0.10000000)
		(1.72625698 0.22742559 0.10000000)
		(1.74301676 0.22142485 0.10000000)
		(1.75977654 0.21476494 0.10000000)
		(1.77653631 0.20746568 0.10000000)
		(1.79329609 0.19954880 0.10000000)
		(1.81005587 0.19103786 0.10000000)
		(1.82681564 0.18195822 0.10000000)
		(1.84357542 0.17233689 0.10000000)
		(1.86033520 0.16220252 0.10000000)
		(1.87709497 0.15158528 0.10000000)
		(1.89385475 0.14051677 0.10000000)
		(1.91061453 0.12902995 0.10000000)
		(1.92737430 0.11715901 0.10000000)
		(1.94413408 0.10493930 0.10000000)
		(1.96089385 0.09240718 0.10000000)
		(1.97765363 0.07959996 0.10000000)
		(1.99441341 0.06655579 0.10000000)
		(2.01117318 0.05331347 0.10000000)
		(2.02793296 0.03991245 0.10000000)
		(2.04469274 0.02639260 0.10000000)
		(2.06145251 0.01279419 0.10000000)
		(2.07821229 -0.00084231 0.10000000)
		(2.09497207 -0.01447631 0.10000000)
		(2.11173184 -0.02806721 0.10000000)
		(2.12849162 -0.04157455 0.10000000)
		(2.14525140 -0.05495813 0.10000000)
		(2.16201117 -0.06817810 0.10000000)
		(2.17877095 -0.08119510 0.10000000)
		(2.19553073 -0.09397039 0.10000000)
		(2.21229050 -0.10646593 0.10000000)
		(2.22905028 -0.11864453 0.10000000)
		(2.24581006 -0.13046993 0.10000000)
		(2.26256983 -0.14190692 0.10000000)
		(2.27932961 -0.15292146 0.10000000)
		(2.29608939 -0.16348075 0.10000000)
		(2.31284916 -0.17355337 0.10000000)
		(2.32960894 -0.18310932 0.10000000)
		(2.34636872 -0.19212017 0.10000000)
		(2.36312849 -0.20055908 0.10000000)
		(2.37988827 -0.20840093 0.10000000)
		(2.39664804 -0.21562238 0.10000000)
		(2.41340782 -0.22220192 0.10000000)
		(2.43016760 -0.22811998 0.10000000)
		(2.44692737 -0.23335893 0.10000000)
		(2.46368715 -0.23790318 0.10000000)
		(2.48044693 -0.24173920 0.10000000)
		(2.49720670 -0.24485557 0.10000000)
		(2.51396648 -0.24724301 0.10000000)
		(2.53072626 -0.24889442 0.10000000)
		(2.54748603 -0.24980487 0.10000000)
		(2.56424581 -0.24997167 0.10000000)
		(2.58100559 -0.24939430 0.10000000)
		(2.59776536 -0.24807450 0.10000000)
		(2.61452514 -0.24601618 0.10000000)
		(2.63128492 -0.24322549 0.10000000)
		(2.64804469 -0.23971072 0.10000000)
		(2.66480447 -0.23548234 0.10000000)
		(2.68156425 -0.23055293 0.10000000)
		(2.69832402 -0.22493718 0.10000000)
		(2.71508380 -0.21865179 0.10000000)
		(2.73184358 -0.21171548 0.10000000)
		(2.74860335 -0.20414891 0.10000000)
		(2.76536313 -0.19597459 0.10000000)
		(2.78212291 -0.18721686 0.10000000)
		(2.79888268 -0.17790179 0.10000000)
		(2.81564246 -0.16805711 0.10000000)
		(2.83240223 -0.15771213 0.10000000)
		(2.84916201 -0.14689764 0.10000000)
		(2.86592179 -0.13564585 0.10000000)
		(2.88268156 -0.12399024 0.10000000)
		(2.89944134 -0.11196552 0.10000000)
		(2.91620112 -0.09960748 0.10000000)
		(2.93296089 -0.08695292 0.10000000)
		(2.95166480 -0.07691726 0.10000000)
		(2.97036872 -0.06793799 0.10000000)
		(2.98907263 -0.06001510 0.10000000)
		(3.00777654 -0.05314860 0.10000000)
		(3.02648045 -0.04733848 0.10000000)
		(3.04518436 -0.04258475 0.10000000)
		(3.06388827 -0.03888741 0.10000000)
		(3.08259218 -0.03624644 0.10000000)
		(3.10129609 -0.03466187 0.10000000)
		(3.12000000 -0.03413367 0.10000000)
		(3.14000000 -0.03413367 0.10000000)
		(3.16000000 -0.03413367 0.10000000)
		(3.18000000 -0.03413367 0.10000000)
		(3.20000000 -0.03413367 0.10000000)
		(3.22000000 -0.03413367 0.10000000)
		(3.24000000 -0.03413367 0.10000000)
		(3.26000000 -0.03413367 0.10000000)
		(3.28000000 -0.03413367 0.10000000)
		(3.30000000 -0.03413367 0.10000000)
		(3.32000000 -0.03413367 0.10000000)
		(3.34000000 -0.03413367 0.10000000)
		(3.36000000 -0.03413367 0.10000000)
		(3.38000000 -0.03413367 0.10000000)
		(3.40000000 -0.03413367 0.10000000)
		(3.42000000 -0.03413367 0.10000000)
		(3.44000000 -0.03413367 0.10000000)
		(3.46000000 -0.03413367 0.10000000)
		(3.48000000 -0.03413367 0.10000000)
		(3.50000000 -0.03413367 0.10000000)
		(3.52000000 -0.03413367 0.10000000)
		(3.54000000 -0.03413367 0.10000000)
		(3.56000000 -0.03413367 0.10000000)
		(3.58000000 -0.03413367 0.10000000)
		(3.60000000 -0.03413367 0.10000000)
		(3.62000000 -0.03413367 0.10000000)
		(3.64000000 -0.03413367 0.10000000)
		(3.66000000 -0.03413367 0.10000000)
		(3.68000000 -0.03413367 0.10000000)
		(3.70000000 -0.03413367 0.10000000)
		(3.72000000 -0.03413367 0.10000000)
		(3.74000000 -0.03413367 0.10000000)
		(3.76000000 -0.03413367 0.10000000)
		(3.78000000 -0.03413367 0.10000000)
		(3.80000000 -0.03413367 0.10000000)
		(3.82000000 -0.03413367 0.10000000)
		(3.84000000 -0.03413367 0.10000000)
		(3.86000000 -0.03413367 0.10000000)
		(3.88000000 -0.03413367 0.10000000)
		(3.90000000 -0.03413367 0.10000000)
		(3.92000000 -0.03413367 0.10000000)
		(3.94000000 -0.03413367 0.10000000)
		(3.96000000 -0.03413367 0.10000000)
		(3.98000000 -0.03413367 0.10000000)
		(4.00000000 -0.03413367 0.10000000)
	)
	polyLine 3 2
	(
		(-1.00000000 0.61542806 0.00000000)
		(-0.98000000 0.61648828 0.00000000)
		(-0.96000000 0.61754851 0.00000000)
		(-0.94000000 0.61860873 0.00000000)
		(-0.92000000 0.61966895 0.00000000)
		(-0.90000000 0.62072918 0.00000000)
		(-0.88000000 0.62178940 0.00000000)
		(-0.86000000 0.62284963 0.00000000)
		(-0.84000000 0.62390985 0.00000000)
		(-0.82000000 0.62497008 0.00000000)
		(-0.80000000 0.62603030 0.00000000)
		(-0.78000000 0.62709053 0.00000000)
		(-0.76000000 0.62815075 0.00000000)
		(-0.74000000 0.62921098 0.00000000)
		(-0.72000000 0.63027120 0.00000000)
		(-0.70000000 0.63133143 0.00000000)
		(-0.68000000 0.63239165 0.00000000)
		(-0.66000000 0.63345188 0.00000000)
		(-0.64000000 0.63451210 0.00000000)
		(-0.62000000 0.63557233 0.00000000)
		(-0.60000000 0.63663255 0.00000000)
		(-0.58000000 0.63769277 0.00000000)
		(-0.56000000 0.63875300 0.00000000)
		(-0.54000000 0.63981322 0.00000000)
		(-0.52000000 0.64087345 0.00000000)
		(-0.50000000 0.64193367 0.00000000)
		(-0.48000000 0.64299390 0.00000000)
		(-0.46000000 0.64405412 0.00000000)
		(-0.44000000 0.64511435 0.00000000)
		(-0.42000000 0.64617457 0.00000000)
		(-0.40000000 0.64723480 0.00000000)
		(-0.38000000 0.64829502 0.00000000)
		(-0.36000000 0.64935525 0.00000000)
		(-0.34000000 0.65041547 0.00000000)
		(-0.32000000 0.65147570 0.00000000)
		(-0.30000000 0.65253592 0.00000000)
		(-0.28000000 0.65359614 0.00000000)
		(-0.26000000 0.65465637 0.00000000)
		(-0.24000000 0.65571659 0.00000000)
		(-0.22000000 0.65677682 0.00000000)
		(-0.20000000 0.65783704 0.00000000)
		(-0.18000000 0.65889727 0.00000000)
		(-0.16000000 0.65995749 0.00000000)
		(-0.14000000 0.66101772 0.00000000)
		(-0.12000000 0.66207794 0.00000000)
		(-0.10000000 0.66313817 0.00000000)
		(-0.08162011 0.66450072 0.00000000)
		(-0.06324022 0.66359154 0.00000000)
		(-0.04486034 0.66041064 0.00000000)
		(-0.02648045 0.65495800 0.00000000)
		(-0.00810056 0.64723363 0.00000000)
		(0.01027933 0.63723753 0.00000000)
		(0.02865922 0.62496969 0.00000000)
		(0.04703911 0.61043013 0.00000000)
		(0.06541899 0.59361884 0.00000000)
		(0.08379888 0.57453581 0.00000000)
		(0.10055866 0.55507509 0.00000000)
		(0.11731844 0.53545041 0.00000000)
		(0.13407821 0.51572019 0.00000000)
		(0.15083799 0.49594318 0.00000000)
		(0.16759777 0.47617824 0.00000000)
		(0.18435754 0.45648423 0.00000000)
		(0.20111732 0.43691975 0.00000000)
		(0.21787709 0.41754306 0.00000000)
		(0.23463687 0.39841185 0.00000000)
		(0.25139665 0.37958306 0.00000000)
		(0.26815642 0.36111275 0.00000000)
		(0.28491620 0.34305590 0.00000000)
		(0.30167598 0.32546627 0.00000000)
		(0.31843575 0.30839622 0.00000000)
		(0.33519553 0.29189657 0.00000000)
		(0.35195531 0.27601643 0.00000000)
		(0.36871508 0.26080309 0.00000000)
		(0.38547486 0.24630183 0.00000000)
		(0.40223464 0.23255582 0.00000000)
		(0.41899441 0.21960599 0.00000000)
		(0.43575419 0.20749088 0.00000000)
		(0.45251397 0.19624656 0.00000000)
		(0.46927374 0.18590650 0.00000000)
		(0.48603352 0.17650149 0.00000000)
		(0.50279330 0.16805953 0.00000000)
		(0.51955307 0.16060574 0.00000000)
		(0.53631285 0.15416232 0.00000000)
		(0.55307263 0.14874845 0.00000000)
		(0.56983240 0.14438024 0.00000000)
		(0.58659218 0.14107070 0.00000000)
		(0.60335196 0.13882969 0.00000000)
		(0.62011173 0.13766386 0.00000000)
		(0.63687151 0.13757670 0.00000000)
		(0.65363128 0.13856847 0.00000000)
		(0.67039106 0.14063620 0.00000000)
		(0.68715084 0.14377375 0.00000000)
		(0.70391061 0.14797177 0.00000000)
		(0.72067039 0.15321777 0.00000000)
		(0.73743017 0.15949613 0.00000000)
		(0.75418994 0.16678816 0.00000000)
		(0.77094972 0.17507215 0.00000000)
		(0.78770950 0.18432344 0.00000000)
		(0.80446927 0.19451449 0.00000000)
		(0.82122905 0.20561496 0.00000000)
		(0.83798883 0.21759181 0.00000000)
		(0.85474860 0.23040938 0.00000000)
		(0.87150838 0.24402951 0.00000000)
		(0.88826816 0.25841165 0.00000000)
		(0.90502793 0.27351300 0.00000000)
		(0.92178771 0.28928859 0.00000000)
		(0.93854749 0.30569147 0.00000000)
		(0.95530726 0.32267279 0.00000000)
		(0.97206704 0.34018201 0.00000000)
		(0.98882682 0.35816701 0.00000000)
		(1.00558659 0.37657424 0.00000000)
		(1.02234637 0.39534890 0.00000000)
		(1.03910615 0.41443510 0.00000000)
		(1.05586592 0.43377603 0.00000000)
		(1.07262570 0.45331411 0.00000000)
		(1.08938547 0.47299117 0.00000000)
		(1.10614525 0.49274863 0.00000000)
		(1.12290503 0.51252768 0.00000000)
		(1.13966480 0.53226944 0.00000000)
		(1.15642458 0.55191513 0.00000000)
		(1.17318436 0.57140627 0.00000000)
		(1.18994413 0.59068484 0.00000000)
		(1.20670391 0.60969344 0.00000000)
		(1.22346369 0.62837548 0.00000000)
		(1.24022346 0.64667536 0.00000000)
		(1.25698324 0.66453859 0.00000000)
		(1.27374302 0.68191199 0.00000000)
		(1.29050279 0.69874385 0.00000000)
		(1.30726257 0.71498405 0.00000000)
		(1.32402235 0.73058425 0.00000000)
		(1.34078212 0.74549801 0.00000000)
		(1.35754190 0.75968093 0.00000000)
		(1.37430168 0.77309078 0.00000000)
		(1.39106145 0.78568766 0.00000000)
		(1.40782123 0.79743405 0.00000000)
		(1.42458101 0.80829498 0.00000000)
		(1.44134078 0.81823814 0.00000000)
		(1.45810056 0.82723391 0.00000000)
		(1.47486034 0.83525551 0.00000000)
		(1.49162011 0.84227907 0.00000000)
		(1.50837989 0.84828367 0.00000000)
		(1.52513966 0.85325144 0.00000000)
		(1.54189944 0.85716760 0.00000000)
		(1.55865922 0.86002048 0.00000000)
		(1.57541899 0.86180159 0.00000000)
		(1.59217877 0.86250562 0.00000000)
		(1.60893855 0.86213049 0.00000000)
		(1.62569832 0.86067731 0.00000000)
		(1.64245810 0.85815040 0.00000000)
		(1.65921788 0.85455729 0.00000000)
		(1.67597765 0.84990867 0.00000000)
		(1.69273743 0.84421838 0.00000000)
		(1.70949721 0.83750337 0.00000000)
		(1.72625698 0.82978362 0.00000000)
		(1.74301676 0.82108212 0.00000000)
		(1.75977654 0.81142476 0.00000000)
		(1.77653631 0.80084030 0.00000000)
		(1.79329609 0.78936025 0.00000000)
		(1.81005587 0.77701878 0.00000000)
		(1.82681564 0.76385264 0.00000000)
		(1.84357542 0.74990101 0.00000000)
		(1.86033520 0.73520544 0.00000000)
		(1.87709497 0.71980967 0.00000000)
		(1.89385475 0.70375953 0.00000000)
		(1.91061453 0.68710280 0.00000000)
		(1.92737430 0.66988908 0.00000000)
		(1.94413408 0.65216960 0.00000000)
		(1.96089385 0.63399712 0.00000000)
		(1.97765363 0.61542573 0.00000000)
		(1.99441341 0.59651072 0.00000000)
		(2.01117318 0.57730841 0.00000000)
		(2.02793296 0.55787595 0.00000000)
		(2.04469274 0.53827119 0.00000000)
		(2.06145251 0.51855250 0.00000000)
		(2.07821229 0.49877858 0.00000000)
		(2.09497207 0.47900830 0.00000000)
		(2.11173184 0.45930051 0.00000000)
		(2.12849162 0.43971388 0.00000000)
		(2.14525140 0.42030672 0.00000000)
		(2.16201117 0.40113681 0.00000000)
		(2.17877095 0.38226120 0.00000000)
		(2.19553073 0.36373611 0.00000000)
		(2.21229050 0.34561666 0.00000000)
		(2.22905028 0.32795681 0.00000000)
		(2.24581006 0.31080913 0.00000000)
		(2.26256983 0.29422466 0.00000000)
		(2.27932961 0.27825278 0.00000000)
		(2.29608939 0.26294104 0.00000000)
		(2.31284916 0.24833501 0.00000000)
		(2.32960894 0.23447818 0.00000000)
		(2.34636872 0.22141180 0.00000000)
		(2.36312849 0.20917477 0.00000000)
		(2.37988827 0.19780351 0.00000000)
		(2.39664804 0.18733189 0.00000000)
		(2.41340782 0.17779107 0.00000000)
		(2.43016760 0.16920946 0.00000000)
		(2.44692737 0.16161260 0.00000000)
		(2.46368715 0.15502311 0.00000000)
		(2.48044693 0.14946060 0.00000000)
		(2.49720670 0.14494164 0.00000000)