/*--------------------------------*- C++ -*----------------------------------*\\
/*--------------------------------*- C++ -*----------------------------------*\\
| =========                 |                                                 |
| \\\\      /  F ield         | OpenFOAM: The Open Source CFD Toolbox           |
|  \\\\    /   O peration     | Version:  v2012                                 |
|   \\\\  /    A nd           | Website:  www.openfoam.com                      |
|    \\\\/     M anipulation  |                                                 |
\\*---------------------------------------------------------------------------*/
FoamFile
{
    version     2.0;
    format      ascii;
    class       dictionary;
    object      blockMeshDict;
}
// * * * * * * * * * * * * * * * * * * * * * * * * * * * * * * * * * * * * * //

scale   0.01;

xmin -1;
xmax 5;
ymin 0;
ymax 0.5;
zmin 0;
zmax 0.1;

vertices
(
    (-1.00000000 -0.10890650 0.00000000)
    (4.00000000 0.21369387 0.00000000)
    (4.00000000 0.71369387 0.00000000)
    (-1.00000000 0.39109350 0.00000000)
    (-1.00000000 -0.10890650 0.10000000)
    (4.00000000 0.21369387 0.10000000)
    (4.00000000 0.71369387 0.10000000)
    (-1.00000000 0.39109350 0.10000000)
);

blocks
(
    hex (0 1 2 3 4 5 6 7) (200 20 1) simpleGrading (1 1 1)
);

edges
(
	polyLine 0 1
	(
		(-1.00000000 -0.10890650 0.00000000)
		(-0.98000000 -0.10890650 0.00000000)
		(-0.96000000 -0.10890650 0.00000000)
		(-0.94000000 -0.10890650 0.00000000)
		(-0.92000000 -0.10890650 0.00000000)
		(-0.90000000 -0.10890650 0.00000000)
		(-0.88000000 -0.10890650 0.00000000)
		(-0.86000000 -0.10890650 0.00000000)
		(-0.84000000 -0.10890650 0.00000000)
		(-0.82000000 -0.10890650 0.00000000)
		(-0.80000000 -0.10890650 0.00000000)
		(-0.78000000 -0.10890650 0.00000000)
		(-0.76000000 -0.10890650 0.00000000)
		(-0.74000000 -0.10890650 0.00000000)
		(-0.72000000 -0.10890650 0.00000000)
		(-0.70000000 -0.10890650 0.00000000)
		(-0.68000000 -0.10890650 0.00000000)
		(-0.66000000 -0.10890650 0.00000000)
		(-0.64000000 -0.10890650 0.00000000)
		(-0.62000000 -0.10890650 0.00000000)
		(-0.60000000 -0.10890650 0.00000000)
		(-0.58000000 -0.10890650 0.00000000)
		(-0.56000000 -0.10890650 0.00000000)
		(-0.54000000 -0.10890650 0.00000000)
		(-0.52000000 -0.10890650 0.00000000)
		(-0.50000000 -0.10890650 0.00000000)
		(-0.48000000 -0.10890650 0.00000000)
		(-0.46000000 -0.10890650 0.00000000)
		(-0.44000000 -0.10890650 0.00000000)
		(-0.42000000 -0.10890650 0.00000000)
		(-0.40000000 -0.10890650 0.00000000)
		(-0.38000000 -0.10890650 0.00000000)
		(-0.36000000 -0.10890650 0.00000000)
		(-0.34000000 -0.10890650 0.00000000)
		(-0.32000000 -0.10890650 0.00000000)
		(-0.30000000 -0.10890650 0.00000000)
		(-0.28000000 -0.10890650 0.00000000)
		(-0.26000000 -0.10890650 0.00000000)
		(-0.24000000 -0.10890650 0.00000000)
		(-0.22000000 -0.10890650 0.00000000)
		(-0.20000000 -0.10890650 0.00000000)
		(-0.18000000 -0.10890650 0.00000000)
		(-0.16000000 -0.10890650 0.00000000)
		(-0.14000000 -0.10890650 0.00000000)
		(-0.12000000 -0.10890650 0.00000000)
		(-0.10000000 -0.10890650 0.00000000)
		(-0.08162011 -0.10954069 0.00000000)
		(-0.06324022 -0.11144326 0.00000000)
		(-0.04486034 -0.11461420 0.00000000)
		(-0.02648045 -0.11905352 0.00000000)
		(-0.00810056 -0.12476123 0.00000000)
		(0.01027933 -0.13173731 0.00000000)
		(0.02865922 -0.13998176 0.00000000)
		(0.04703911 -0.14949460 0.00000000)
		(0.06541899 -0.16027582 0.00000000)
		(0.08379888 -0.17232541 0.00000000)
		(0.10055866 -0.18320936 0.00000000)
		(0.11731844 -0.19339022 0.00000000)
		(0.13407821 -0.20282894 0.00000000)
		(0.15083799 -0.21148928 0.00000000)
		(0.16759777 -0.21933801 0.00000000)
		(0.18435754 -0.22634501 0.00000000)
		(0.20111732 -0.23248339 0.00000000)
		(0.21787709 -0.23772959 0.00000000)
		(0.23463687 -0.24206349 0.00000000)
		(0.25139665 -0.24546844 0.00000000)
		(0.26815642 -0.24793139 0.00000000)
		(0.28491620 -0.24944287 0.00000000)
		(0.30167598 -0.24999710 0.00000000)
		(0.31843575 -0.24959194 0.00000000)
		(0.33519553 -0.24822895 0.00000000)
		(0.35195531 -0.24591336 0.00000000)
		(0.36871508 -0.24265405 0.00000000)
		(0.38547486 -0.23846354 0.00000000)
		(0.40223464 -0.23335790 0.00000000)
		(0.41899441 -0.22735673 0.00000000)
		(0.43575419 -0.22048305 0.00000000)
		(0.45251397 -0.21276325 0.00000000)
		(0.46927374 -0.20422696 0.00000000)
		(0.48603352 -0.19490692 0.00000000)
		(0.50279330 -0.18483891 0.00000000)
		(0.51955307 -0.17406156 0.00000000)
		(0.53631285 -0.16261624 0.00000000)
		(0.55307263 -0.15054686 0.00000000)
		(0.56983240 -0.13789975 0.00000000)
		(0.58659218 -0.12472343 0.00000000)
		(0.60335196 -0.11106848 0.00000000)
		(0.62011173 -0.09698728 0.00000000)
		(0.63687151 -0.08253390 0.00000000)
		(0.65363128 -0.06776378 0.00000000)
		(0.67039106 -0.05273361 0.00000000)
		(0.68715084 -0.03750107 0.00000000)
		(0.70391061 -0.02212461 0.00000000)
		(0.72067039 -0.00666326 0.00000000)
		(0.73743017 0.00882367 0.00000000)
		(0.75418994 0.02427674 0.00000000)
		(0.77094972 0.03963664 0.00000000)
		(0.78770950 0.05484444 0.00000000)
		(0.80446927 0.06984176 0.00000000)
		(0.82122905 0.08457106 0.00000000)
		(0.83798883 0.09897581 0.00000000)
		(0.85474860 0.11300073 0.00000000)
		(0.87150838 0.12659201 0.00000000)
		(0.88826816 0.13969747 0.00000000)
		(0.90502793 0.15226683 0.00000000)
		(0.92178771 0.16425185 0.00000000)
		(0.93854749 0.17560654 0.00000000)
		(0.95530726 0.18628733 0.00000000)
		(0.97206704 0.19625322 0.00000000)
		(0.98882682 0.20546597 0.00000000)
		(1.00558659 0.21389023 0.00000000)
		(1.02234637 0.22149366 0.00000000)
		(1.03910615 0.22824709 0.00000000)
		(1.05586592 0.23412460 0.00000000)
		(1.07262570 0.23910364 0.00000000)
		(1.08938547 0.24316510 0.00000000)
		(1.10614525 0.24629338 0.00000000)
		(1.12290503 0.24847650 0.00000000)
		(1.13966480 0.24970606 0.00000000)
		(1.15642458 0.24997735 0.00000000)
		(1.17318436 0.24928933 0.00000000)
		(1.18994413 0.24764464 0.00000000)
		(1.20670391 0.24504960 0.00000000)
		(1.22346369 0.24151415 0.00000000)
		(1.24022346 0.23705187 0.00000000)
		(1.25698324 0.23167988 0.00000000)
		(1.27374302 0.22541880 0.00000000)
		(1.29050279 0.21829265 0.00000000)
		(1.30726257 0.21032878 0.00000000)
		(1.32402235 0.20155776 0.00000000)
		(1.34078212 0.19201325 0.00000000)
		(1.35754190 0.18173186 0.00000000)
		(1.37430168 0.17075306 0.00000000)
		(1.39106145 0.15911898 0.00000000)
		(1.40782123 0.14687427 0.00000000)
		(1.42458101 0.13406592 0.00000000)
		(1.44134078 0.12074307 0.00000000)
		(1.45810056 0.10695686 0.00000000)
		(1.47486034 0.09276020 0.00000000)
		(1.49162011 0.07820756 0.00000000)
		(1.50837989 0.06335479 0.00000000)
		(1.52513966 0.04825889 0.00000000)
		(1.54189944 0.03297779 0.00000000)
		(1.55865922 0.01757014 0.00000000)
		(1.57541899 0.00209506 0.00000000)
		(1.59217877 -0.01338806 0.00000000)
		(1.60893855 -0.02881980 0.00000000)
		(1.62569832 -0.04414095 0.00000000)
		(1.64245810 -0.05929270 0.00000000)
		(1.65921788 -0.07421690 0.00000000)
		(1.67597765 -0.08885630 0.00000000)
		(1.69273743 -0.10315469 0.00000000)
		(1.70949721 -0.11705723 0.00000000)
		(1.72625698 -0.13051054 0.00000000)
		(1.74301676 -0.14346301 0.00000000)
		(1.75977654 -0.15586493 0.00000000)
		(1.77653631 -0.16766870 0.00000000)
		(1.79329609 -0.17882903 0.00000000)
		(1.81005587 -0.18930308 0.00000000)
		(1.82681564 -0.19905067 0.00000000)
		(1.84357542 -0.20803438 0.00000000)
		(1.86033520 -0.21621974 0.00000000)
		(1.87709497 -0.22357533 0.00000000)
		(1.89385475 -0.23007294 0.00000000)
		(1.91061453 -0.23568762 0.00000000)
		(1.92737430 -0.24039783 0.00000000)
		(1.94413408 -0.24418549 0.00000000)
		(1.96089385 -0.24703606 0.00000000)
		(1.97765363 -0.24893861 0.00000000)
		(1.99441341 -0.24988584 0.00000000)
		(2.01117318 -0.24987411 0.00000000)
		(2.02793296 -0.24890346 0.00000000)
		(2.04469274 -0.24697762 0.00000000)
		(2.06145251 -0.24410399 0.00000000)
		(2.07821229 -0.24029358 0.00000000)
		(2.09497207 -0.23556102 0.00000000)
		(2.11173184 -0.22992448 0.00000000)
		(2.12849162 -0.22340558 0.00000000)
		(2.14525140 -0.21602934 0.00000000)
		(2.16201117 -0.20782407 0.00000000)
		(2.17877095 -0.19882125 0.00000000)
		(2.19553073 -0.18905544 0.00000000)
		(2.21229050 -0.17856411 0.00000000)
		(2.22905028 -0.16738753 0.00000000)
		(2.24581006 -0.15556858 0.00000000)
		(2.26256983 -0.14315262 0.00000000)
		(2.27932961 -0.13018731 0.00000000)
		(2.29608939 -0.11672238 0.00000000)
		(2.31284916 -0.10280952 0.00000000)
		(2.32960894 -0.08850213 0.00000000)
		(2.34636872 -0.07385509 0.00000000)
		(2.36312849 -0.05892463 0.00000000)
		(2.37988827 -0.04376805 0.00000000)
		(2.39664804 -0.02844350 0.00000000)
		(2.41340782 -0.01300979 0.00000000)
		(2.43016760 0.00247384 0.00000000)
		(2.44692737 0.01794798 0.00000000)
		(2.46368715 0.03335324 0.00000000)
		(2.48044693 0.04863051 0.00000000)
		(2.49720670 0.06372115 0.00000000)
		(2.51396648 0.07856725 0.00000000)
		(2.53072626 0.09311185 0.00000000)
		(2.54748603 0.10729912 0.00000000)
		(2.56424581 0.12107462 0.00000000)
		(2.58100559 0.13438549 0.00000000)
		(2.59776536 0.14718064 0.00000000)
		(2.61452514 0.15941097 0.00000000)
		(2.63128492 0.17102955 0.00000000)
		(2.64804469 0.18199178 0.00000000)
		(2.66480447 0.19225561 0.00000000)
		(2.68156425 0.20178163 0.00000000)
		(2.69832402 0.21053330 0.00000000)
		(2.71508380 0.21847703 0.00000000)
		(2.73184358 0.22558234 0.00000000)
		(2.74860335 0.23182195 0.00000000)
		(2.76536313 0.23717192 0.00000000)
		(2.78212291 0.24161173 0.00000000)
		(2.79888268 0.24512432 0.00000000)
		(2.81564246 0.24769623 0.00000000)
		(2.83240223 0.24931759 0.00000000)
		(2.84916201 0.24998216 0.00000000)
		(2.86592179 0.24968741 0.00000000)
		(2.88268156 0.24843446 0.00000000)
		(2.89944134 0.24622811 0.00000000)
		(2.91620112 0.24307685 0.00000000)
		(2.93296089 0.23899275 0.00000000)
		(2.95166480 0.23418596 0.00000000)
		(2.97036872 0.22988516 0.00000000)
		(2.98907263 0.22609032 0.00000000)
		(3.00777654 0.22280147 0.00000000)
		(3.02648045 0.22001859 0.00000000)
		(3.04518436 0.21774169 0.00000000)
		(3.06388827 0.21597077 0.00000000)
		(3.08259218 0.21470583 0.00000000)
		(3.10129609 0.21394686 0.00000000)
		(3.12000000 0.21369387 0.00000000)
		(3.14000000 0.21369387 0.00000000)
		(3.16000000 0.21369387 0.00000000)
		(3.18000000 0.21369387 0.00000000)
		(3.20000000 0.21369387 0.00000000)
		(3.22000000 0.21369387 0.00000000)
		(3.24000000 0.21369387 0.00000000)
		(3.26000000 0.21369387 0.00000000)
		(3.28000000 0.21369387 0.00000000)
		(3.30000000 0.21369387 0.00000000)
		(3.32000000 0.21369387 0.00000000)
		(3.34000000 0.21369387 0.00000000)
		(3.36000000 0.21369387 0.00000000)
		(3.38000000 0.21369387 0.00000000)
		(3.40000000 0.21369387 0.00000000)
		(3.42000000 0.21369387 0.00000000)
		(3.44000000 0.21369387 0.00000000)
		(3.46000000 0.21369387 0.00000000)
		(3.48000000 0.21369387 0.00000000)
		(3.50000000 0.21369387 0.00000000)
		(3.52000000 0.21369387 0.00000000)
		(3.54000000 0.21369387 0.00000000)
		(3.56000000 0.21369387 0.00000000)
		(3.58000000 0.21369387 0.00000000)
		(3.60000000 0.21369387 0.00000000)
		(3.62000000 0.21369387 0.00000000)
		(3.64000000 0.21369387 0.00000000)
		(3.66000000 0.21369387 0.00000000)
		(3.68000000 0.21369387 0.00000000)
		(3.70000000 0.21369387 0.00000000)
		(3.72000000 0.21369387 0.00000000)
		(3.74000000 0.21369387 0.00000000)
		(3.76000000 0.21369387 0.00000000)
		(3.78000000 0.21369387 0.00000000)
		(3.80000000 0.21369387 0.00000000)
		(3.82000000 0.21369387 0.00000000)
		(3.84000000 0.21369387 0.00000000)
		(3.86000000 0.21369387 0.00000000)
		(3.88000000 0.21369387 0.00000000)
		(3.90000000 0.21369387 0.00000000)
		(3.92000000 0.21369387 0.00000000)
		(3.94000000 0.21369387 0.00000000)
		(3.96000000 0.21369387 0.00000000)
		(3.98000000 0.21369387 0.00000000)
		(4.00000000 0.21369387 0.00000000)
	)
	polyLine 4 5
	(
		(-1.00000000 -0.10890650 0.10000000)
		(-0.98000000 -0.10890650 0.10000000)
		(-0.96000000 -0.10890650 0.10000000)
		(-0.94000000 -0.10890650 0.10000000)
		(-0.92000000 -0.10890650 0.10000000)
		(-0.90000000 -0.10890650 0.10000000)
		(-0.88000000 -0.10890650 0.10000000)
		(-0.86000000 -0.10890650 0.10000000)
		(-0.84000000 -0.10890650 0.10000000)
		(-0.82000000 -0.10890650 0.10000000)
		(-0.80000000 -0.10890650 0.10000000)
		(-0.78000000 -0.10890650 0.10000000)
		(-0.76000000 -0.10890650 0.10000000)
		(-0.74000000 -0.10890650 0.10000000)
		(-0.72000000 -0.10890650 0.10000000)
		(-0.70000000 -0.10890650 0.10000000)
		(-0.68000000 -0.10890650 0.10000000)
		(-0.66000000 -0.10890650 0.10000000)
		(-0.64000000 -0.10890650 0.10000000)
		(-0.62000000 -0.10890650 0.10000000)
		(-0.60000000 -0.10890650 0.10000000)
		(-0.58000000 -0.10890650 0.10000000)
		(-0.56000000 -0.10890650 0.10000000)
		(-0.54000000 -0.10890650 0.10000000)
		(-0.52000000 -0.10890650 0.10000000)
		(-0.50000000 -0.10890650 0.10000000)
		(-0.48000000 -0.10890650 0.10000000)
		(-0.46000000 -0.10890650 0.10000000)
		(-0.44000000 -0.10890650 0.10000000)
		(-0.42000000 -0.10890650 0.10000000)
		(-0.40000000 -0.10890650 0.10000000)
		(-0.38000000 -0.10890650 0.10000000)
		(-0.36000000 -0.10890650 0.10000000)
		(-0.34000000 -0.10890650 0.10000000)
		(-0.32000000 -0.10890650 0.10000000)
		(-0.30000000 -0.10890650 0.10000000)
		(-0.28000000 -0.10890650 0.10000000)
		(-0.26000000 -0.10890650 0.10000000)
		(-0.24000000 -0.10890650 0.10000000)
		(-0.22000000 -0.10890650 0.10000000)
		(-0.20000000 -0.10890650 0.10000000)
		(-0.18000000 -0.10890650 0.10000000)
		(-0.16000000 -0.10890650 0.10000000)
		(-0.14000000 -0.10890650 0.10000000)
		(-0.12000000 -0.10890650 0.10000000)
		(-0.10000000 -0.10890650 0.10000000)
		(-0.08162011 -0.10954069 0.10000000)
		(-0.06324022 -0.11144326 0.10000000)
		(-0.04486034 -0.11461420 0.10000000)
		(-0.02648045 -0.11905352 0.10000000)
		(-0.00810056 -0.12476123 0.10000000)
		(0.01027933 -0.13173731 0.10000000)
		(0.02865922 -0.13998176 0.10000000)
		(0.04703911 -0.14949460 0.10000000)
		(0.06541899 -0.16027582 0.10000000)
		(0.08379888 -0.17232541 0.10000000)
		(0.10055866 -0.18320936 0.10000000)
		(0.11731844 -0.19339022 0.10000000)
		(0.13407821 -0.20282894 0.10000000)
		(0.15083799 -0.21148928 0.10000000)
		(0.16759777 -0.21933801 0.10000000)
		(0.18435754 -0.22634501 0.10000000)
		(0.20111732 -0.23248339 0.10000000)
		(0.21787709 -0.23772959 0.10000000)
		(0.23463687 -0.24206349 0.10000000)
		(0.25139665 -0.24546844 0.10000000)
		(0.26815642 -0.24793139 0.10000000)
		(0.28491620 -0.24944287 0.10000000)
		(0.30167598 -0.24999710 0.10000000)
		(0.31843575 -0.24959194 0.10000000)
		(0.33519553 -0.24822895 0.10000000)
		(0.35195531 -0.24591336 0.10000000)
		(0.36871508 -0.24265405 0.10000000)
		(0.38547486 -0.23846354 0.10000000)
		(0.40223464 -0.23335790 0.10000000)
		(0.41899441 -0.22735673 0.10000000)
		(0.43575419 -0.22048305 0.10000000)
		(0.45251397 -0.21276325 0.10000000)
		(0.46927374 -0.20422696 0.10000000)
		(0.48603352 -0.19490692 0.10000000)
		(0.50279330 -0.18483891 0.10000000)
		(0.51955307 -0.17406156 0.10000000)
		(0.53631285 -0.16261624 0.10000000)
		(0.55307263 -0.15054686 0.10000000)
		(0.56983240 -0.13789975 0.10000000)
		(0.58659218 -0.12472343 0.10000000)
		(0.60335196 -0.11106848 0.10000000)
		(0.62011173 -0.09698728 0.10000000)
		(0.63687151 -0.08253390 0.10000000)
		(0.65363128 -0.06776378 0.10000000)
		(0.67039106 -0.05273361 0.10000000)
		(0.68715084 -0.03750107 0.10000000)
		(0.70391061 -0.02212461 0.10000000)
		(0.72067039 -0.00666326 0.10000000)
		(0.73743017 0.00882367 0.10000000)
		(0.75418994 0.02427674 0.10000000)
		(0.77094972 0.03963664 0.10000000)
		(0.78770950 0.05484444 0.10000000)
		(0.80446927 0.06984176 0.10000000)
		(0.82122905 0.08457106 0.10000000)
		(0.83798883 0.09897581 0.10000000)
		(0.85474860 0.11300073 0.10000000)
		(0.87150838 0.12659201 0.10000000)
		(0.88826816 0.13969747 0.10000000)
		(0.90502793 0.15226683 0.10000000)
		(0.92178771 0.16425185 0.10000000)
		(0.93854749 0.17560654 0.10000000)
		(0.95530726 0.18628733 0.10000000)
		(0.97206704 0.19625322 0.10000000)
		(0.98882682 0.20546597 0.10000000)
		(1.00558659 0.21389023 0.10000000)
		(1.02234637 0.22149366 0.10000000)
		(1.03910615 0.22824709 0.10000000)
		(1.05586592 0.23412460 0.10000000)
		(1.07262570 0.23910364 0.10000000)
		(1.08938547 0.24316510 0.10000000)
		(1.10614525 0.24629338 0.10000000)
		(1.12290503 0.24847650 0.10000000)
		(1.13966480 0.24970606 0.10000000)
		(1.15642458 0.24997735 0.10000000)
		(1.17318436 0.24928933 0.10000000)
		(1.18994413 0.24764464 0.10000000)
		(1.20670391 0.24504960 0.10000000)
		(1.22346369 0.24151415 0.10000000)
		(1.24022346 0.23705187 0.10000000)
		(1.25698324 0.23167988 0.10000000)
		(1.27374302 0.22541880 0.10000000)
		(1.29050279 0.21829265 0.10000000)
		(1.30726257 0.21032878 0.10000000)
		(1.32402235 0.20155776 0.10000000)
		(1.34078212 0.19201325 0.10000000)
		(1.35754190 0.18173186 0.10000000)
		(1.37430168 0.17075306 0.10000000)
		(1.39106145 0.15911898 0.10000000)
		(1.40782123 0.14687427 0.10000000)
		(1.42458101 0.13406592 0.10000000)
		(1.44134078 0.12074307 0.10000000)
		(1.45810056 0.10695686 0.10000000)
		(1.47486034 0.09276020 0.10000000)
		(1.49162011 0.07820756 0.10000000)
		(1.50837989 0.06335479 0.10000000)
		(1.52513966 0.04825889 0.10000000)
		(1.54189944 0.03297779 0.10000000)
		(1.55865922 0.01757014 0.10000000)
		(1.57541899 0.00209506 0.10000000)
		(1.59217877 -0.01338806 0.10000000)
		(1.60893855 -0.02881980 0.10000000)
		(1.62569832 -0.04414095 0.10000000)
		(1.64245810 -0.05929270 0.10000000)
		(1.65921788 -0.07421690 0.10000000)
		(1.67597765 -0.08885630 0.10000000)
		(1.69273743 -0.10315469 0.10000000)
		(1.70949721 -0.11705723 0.10000000)
		(1.72625698 -0.13051054 0.10000000)
		(1.74301676 -0.14346301 0.10000000)
		(1.75977654 -0.15586493 0.10000000)
		(1.77653631 -0.16766870 0.10000000)
		(1.79329609 -0.17882903 0.10000000)
		(1.81005587 -0.18930308 0.10000000)
		(1.82681564 -0.19905067 0.10000000)
		(1.84357542 -0.20803438 0.10000000)
		(1.86033520 -0.21621974 0.10000000)
		(1.87709497 -0.22357533 0.10000000)
		(1.89385475 -0.23007294 0.10000000)
		(1.91061453 -0.23568762 0.10000000)
		(1.92737430 -0.24039783 0.10000000)
		(1.94413408 -0.24418549 0.10000000)
		(1.96089385 -0.24703606 0.10000000)
		(1.97765363 -0.24893861 0.10000000)
		(1.99441341 -0.24988584 0.10000000)
		(2.01117318 -0.24987411 0.10000000)
		(2.02793296 -0.24890346 0.10000000)
		(2.04469274 -0.24697762 0.10000000)
		(2.06145251 -0.24410399 0.10000000)
		(2.07821229 -0.24029358 0.10000000)
		(2.09497207 -0.23556102 0.10000000)
		(2.11173184 -0.22992448 0.10000000)
		(2.12849162 -0.22340558 0.10000000)
		(2.14525140 -0.21602934 0.10000000)
		(2.16201117 -0.20782407 0.10000000)
		(2.17877095 -0.19882125 0.10000000)
		(2.19553073 -0.18905544 0.10000000)
		(2.21229050 -0.17856411 0.10000000)
		(2.22905028 -0.16738753 0.10000000)
		(2.24581006 -0.15556858 0.10000000)
		(2.26256983 -0.14315262 0.10000000)
		(2.27932961 -0.13018731 0.10000000)
		(2.29608939 -0.11672238 0.10000000)
		(2.31284916 -0.10280952 0.10000000)
		(2.32960894 -0.08850213 0.10000000)
		(2.34636872 -0.07385509 0.10000000)
		(2.36312849 -0.05892463 0.10000000)
		(2.37988827 -0.04376805 0.10000000)
		(2.39664804 -0.02844350 0.10000000)
		(2.41340782 -0.01300979 0.10000000)
		(2.43016760 0.00247384 0.10000000)
		(2.44692737 0.01794798 0.10000000)
		(2.46368715 0.03335324 0.10000000)
		(2.48044693 0.04863051 0.10000000)
		(2.49720670 0.06372115 0.10000000)
		(2.51396648 0.07856725 0.10000000)
		(2.53072626 0.09311185 0.10000000)
		(2.54748603 0.10729912 0.10000000)
		(2.56424581 0.12107462 0.10000000)
		(2.58100559 0.13438549 0.10000000)
		(2.59776536 0.14718064 0.10000000)
		(2.61452514 0.15941097 0.10000000)
		(2.63128492 0.17102955 0.10000000)
		(2.64804469 0.18199178 0.10000000)
		(2.66480447 0.19225561 0.10000000)
		(2.68156425 0.20178163 0.10000000)
		(2.69832402 0.21053330 0.10000000)
		(2.71508380 0.21847703 0.10000000)
		(2.73184358 0.22558234 0.10000000)
		(2.74860335 0.23182195 0.10000000)
		(2.76536313 0.23717192 0.10000000)
		(2.78212291 0.24161173 0.10000000)
		(2.79888268 0.24512432 0.10000000)
		(2.81564246 0.24769623 0.10000000)
		(2.83240223 0.24931759 0.10000000)
		(2.84916201 0.24998216 0.10000000)
		(2.86592179 0.24968741 0.10000000)
		(2.88268156 0.24843446 0.10000000)
		(2.89944134 0.24622811 0.10000000)
		(2.91620112 0.24307685 0.10000000)
		(2.93296089 0.23899275 0.10000000)
		(2.95166480 0.23418596 0.10000000)
		(2.97036872 0.22988516 0.10000000)
		(2.98907263 0.22609032 0.10000000)
		(3.00777654 0.22280147 0.10000000)
		(3.02648045 0.22001859 0.10000000)
		(3.04518436 0.21774169 0.10000000)
		(3.06388827 0.21597077 0.10000000)
		(3.08259218 0.21470583 0.10000000)
		(3.10129609 0.21394686 0.10000000)
		(3.12000000 0.21369387 0.10000000)
		(3.14000000 0.21369387 0.10000000)
		(3.16000000 0.21369387 0.10000000)
		(3.18000000 0.21369387 0.10000000)
		(3.20000000 0.21369387 0.10000000)
		(3.22000000 0.21369387 0.10000000)
		(3.24000000 0.21369387 0.10000000)
		(3.26000000 0.21369387 0.10000000)
		(3.28000000 0.21369387 0.10000000)
		(3.30000000 0.21369387 0.10000000)
		(3.32000000 0.21369387 0.10000000)
		(3.34000000 0.21369387 0.10000000)
		(3.36000000 0.21369387 0.10000000)
		(3.38000000 0.21369387 0.10000000)
		(3.40000000 0.21369387 0.10000000)
		(3.42000000 0.21369387 0.10000000)
		(3.44000000 0.21369387 0.10000000)
		(3.46000000 0.21369387 0.10000000)
		(3.48000000 0.21369387 0.10000000)
		(3.50000000 0.21369387 0.10000000)
		(3.52000000 0.21369387 0.10000000)
		(3.54000000 0.21369387 0.10000000)
		(3.56000000 0.21369387 0.10000000)
		(3.58000000 0.21369387 0.10000000)
		(3.60000000 0.21369387 0.10000000)
		(3.62000000 0.21369387 0.10000000)
		(3.64000000 0.21369387 0.10000000)
		(3.66000000 0.21369387 0.10000000)
		(3.68000000 0.21369387 0.10000000)
		(3.70000000 0.21369387 0.10000000)
		(3.72000000 0.21369387 0.10000000)
		(3.74000000 0.21369387 0.10000000)
		(3.76000000 0.21369387 0.10000000)
		(3.78000000 0.21369387 0.10000000)
		(3.80000000 0.21369387 0.10000000)
		(3.82000000 0.21369387 0.10000000)
		(3.84000000 0.21369387 0.10000000)
		(3.86000000 0.21369387 0.10000000)
		(3.88000000 0.21369387 0.10000000)
		(3.90000000 0.21369387 0.10000000)
		(3.92000000 0.21369387 0.10000000)
		(3.94000000 0.21369387 0.10000000)
		(3.96000000 0.21369387 0.10000000)
		(3.98000000 0.21369387 0.10000000)
		(4.00000000 0.21369387 0.10000000)
	)
	polyLine 3 2
	(
		(-1.00000000 0.39109350 0.00000000)
		(-0.98000000 0.38920221 0.00000000)
		(-0.96000000 0.38731091 0.00000000)
		(-0.94000000 0.38541962 0.00000000)
		(-0.92000000 0.38352832 0.00000000)
		(-0.90000000 0.38163703 0.00000000)
		(-0.88000000 0.37974573 0.00000000)
		(-0.86000000 0.37785444 0.00000000)
		(-0.84000000 0.37596314 0.00000000)
		(-0.82000000 0.37407185 0.00000000)
		(-0.80000000 0.37218055 0.00000000)
		(-0.78000000 0.37028926 0.00000000)
		(-0.76000000 0.36839796 0.00000000)
		(-0.74000000 0.36650667 0.00000000)
		(-0.72000000 0.36461537 0.00000000)
		(-0.70000000 0.36272408 0.00000000)
		(-0.68000000 0.36083278 0.00000000)
		(-0.66000000 0.35894149 0.00000000)
		(-0.64000000 0.35705019 0.00000000)
		(-0.62000000 0.35515890 0.00000000)
		(-0.60000000 0.35326760 0.00000000)
		(-0.58000000 0.35137631 0.00000000)
		(-0.56000000 0.34948501 0.00000000)
		(-0.54000000 0.34759372 0.00000000)
		(-0.52000000 0.34570242 0.00000000)
		(-0.50000000 0.34381112 0.00000000)
		(-0.48000000 0.34191983 0.00000000)
		(-0.46000000 0.34002853 0.00000000)
		(-0.44000000 0.33813724 0.00000000)
		(-0.42000000 0.33624594 0.00000000)
		(-0.40000000 0.33435465 0.00000000)
		(-0.38000000 0.33246335 0.00000000)
		(-0.36000000 0.33057206 0.00000000)
		(-0.34000000 0.32868076 0.00000000)
		(-0.32000000 0.32678947 0.00000000)
		(-0.30000000 0.32489817 0.00000000)
		(-0.28000000 0.32300688 0.00000000)
		(-0.26000000 0.32111558 0.00000000)
		(-0.24000000 0.31922429 0.00000000)
		(-0.22000000 0.31733299 0.00000000)
		(-0.20000000 0.31544170 0.00000000)
		(-0.18000000 0.31355040 0.00000000)
		(-0.16000000 0.31165911 0.00000000)
		(-0.14000000 0.30976781 0.00000000)
		(-0.12000000 0.30787652 0.00000000)
		(-0.10000000 0.30598522 0.00000000)
		(-0.08162011 0.30544940 0.00000000)
		(-0.06324022 0.30225598 0.00000000)
		(-0.04486034 0.29640496 0.00000000)
		(-0.02648045 0.28789635 0.00000000)
		(-0.00810056 0.27673014 0.00000000)
		(0.01027933 0.26290633 0.00000000)
		(0.02865922 0.24642492 0.00000000)
		(0.04703911 0.22728592 0.00000000)
		(0.06541899 0.20548932 0.00000000)
		(0.08379888 0.18103512 0.00000000)
		(0.10055866 0.16088953 0.00000000)
		(0.11731844 0.14204531 0.00000000)
		(0.13407821 0.12457477 0.00000000)
		(0.15083799 0.10854495 0.00000000)
		(0.16759777 0.09401738 0.00000000)
		(0.18435754 0.08104781 0.00000000)
		(0.20111732 0.06968601 0.00000000)
		(0.21787709 0.05997557 0.00000000)
		(0.23463687 0.05195377 0.00000000)
		(0.25139665 0.04565138 0.00000000)
		(0.26815642 0.04109261 0.00000000)
		(0.28491620 0.03829493 0.00000000)
		(0.30167598 0.03726908 0.00000000)
		(0.31843575 0.03801901 0.00000000)
		(0.33519553 0.04054183 0.00000000)
		(0.35195531 0.04482786 0.00000000)
		(0.36871508 0.05086066 0.00000000)
		(0.38547486 0.05861707 0.00000000)
		(0.40223464 0.06806733 0.00000000)
		(0.41899441 0.07917517 0.00000000)
		(0.43575419 0.09189797 0.00000000)
		(0.45251397 0.10618689 0.00000000)
		(0.46927374 0.12198711 0.00000000)
		(0.48603352 0.13923799 0.00000000)
		(0.50279330 0.15787332 0.00000000)
		(0.51955307 0.17782159 0.00000000)
		(0.53631285 0.19900626 0.00000000)
		(0.55307263 0.22134602 0.00000000)
		(0.56983240 0.24475513 0.00000000)
		(0.58659218 0.26914377 0.00000000)
		(0.60335196 0.29441835 0.00000000)
		(0.62011173 0.32048186 0.00000000)
		(0.63687151 0.34723429 0.00000000)
		(0.65363128 0.37457297 0.00000000)
		(0.67039106 0.40239299 0.00000000)
		(0.68715084 0.43058758 0.00000000)
		(0.70391061 0.45904855 0.00000000)
		(0.72067039 0.48766668 0.00000000)
		(0.73743017 0.51633214 0.00000000)
		(0.75418994 0.54493492 0.00000000)
		(0.77094972 0.57336525 0.00000000)
		(0.78770950 0.60151405 0.00000000)
		(0.80446927 0.62927327 0.00000000)
		(0.82122905 0.65653640 0.00000000)
		(0.83798883 0.68319880 0.00000000)
		(0.85474860 0.70915816 0.00000000)
		(0.87150838 0.73431486 0.00000000)
		(0.88826816 0.75857235 0.00000000)
		(0.90502793 0.78183755 0.00000000)
		(0.92178771 0.80402117 0.00000000)
		(0.93854749 0.82503808 0.00000000)
		(0.95530726 0.84480762 0.00000000)
		(0.97206704 0.86325394 0.00000000)
		(0.98882682 0.88030624 0.00000000)
		(1.00558659 0.89589907 0.00000000)
		(1.02234637 0.90997261 0.00000000)
		(1.03910615 0.92247284 0.00000000)
		(1.05586592 0.93335179 0.00000000)
		(1.07262570 0.94256772 0.00000000)
		(1.08938547 0.95008525 0.00000000)
		(1.10614525 0.95587554 0.00000000)
		(1.12290503 0.95991636 0.00000000)
		(1.13966480 0.96219221 0.00000000)
		(1.15642458 0.96269436 0.00000000)
		(1.17318436 0.96142088 0.00000000)
		(1.18994413 0.95837665 0.00000000)
		(1.20670391 0.95357336 0.00000000)
		(1.22346369 0.94702944 0.00000000)
		(1.24022346 0.93877000 0.00000000)
		(1.25698324 0.92882674 0.00000000)
		(1.27374302 0.91723782 0.00000000)
		(1.29050279 0.90404772 0.00000000)
		(1.30726257 0.88930704 0.00000000)
		(1.32402235 0.87307236 0.00000000)
		(1.34078212 0.85540598 0.00000000)
		(1.35754190 0.83637570 0.00000000)
		(1.37430168 0.81605455 0.00000000)
		(1.39106145 0.79452051 0.00000000)
		(1.40782123 0.77185622 0.00000000)
		(1.42458101 0.74814866 0.00000000)
		(1.44134078 0.72348880 0.00000000)
		(1.45810056 0.69797128 0.00000000)
		(1.47486034 0.67169403 0.00000000)
		(1.49162011 0.64475789 0.00000000)
		(1.50837989 0.61726623 0.00000000)
		(1.52513966 0.58932455 0.00000000)
		(1.54189944 0.56104008 0.00000000)
		(1.55865922 0.53252136 0.00000000)
		(1.57541899 0.50387784 0.00000000)
		(1.59217877 0.47521943 0.00000000)
		(1.60893855 0.44665612 0.00000000)
		(1.62569832 0.41829753 0.00000000)
		(1.64245810 0.39025247 0.00000000)
		(1.65921788 0.36262859 0.00000000)
		(1.67597765 0.33553187 0.00000000)
		(1.69273743 0.30906632 0.00000000)
		(1.70949721 0.28333349 0.00000000)
		(1.72625698 0.25843215 0.00000000)
		(1.74301676 0.23445784 0.00000000)
		(1.75977654 0.21150257 0.00000000)
		(1.77653631 0.18965444 0.00000000)
		(1.79329609 0.16899728 0.00000000)
		(1.81005587 0.14961038 0.00000000)
		(1.82681564 0.13156814 0.00000000)
		(1.84357542 0.11493978 0.00000000)
		(1.86033520 0.09978913 0.00000000)
		(1.87709497 0.08617432 0.00000000)
		(1.89385475 0.07414761 0.00000000)
		(1.91061453 0.06375514 0.00000000)
		(1.92737430 0.05503681 0.00000000)
		(1.94413408 0.04802606 0.00000000)
		(1.96089385 0.04274980 0.00000000)
		(1.97765363 0.03922828 0.00000000)
		(1.99441341 0.03747502 0.00000000)
		(2.01117318 0.03749673 0.00000000)
		(2.02793296 0.03929335 0.00000000)
		(2.04469274 0.04285797 0.00000000)
		(2.06145251 0.04817691 0.00000000)
		(2.07821229 0.05522977 0.00000000)
		(2.09497207 0.06398947 0.00000000)
		(2.11173184 0.07442241 0.00000000)
		(2.12849162 0.08648853 0.00000000)
		(2.14525140 0.10014155 0.00000000)
		(2.16201117 0.11532905 0.00000000)
		(2.17877095 0.13199277 0.00000000)
		(2.19553073 0.15006875 0.00000000)
		(2.21229050 0.16948762 0.00000000)
		(2.22905028 0.19017486 0.00000000)
		(2.24581006 0.21205109 0.00000000)
		(2.26256983 0.23503235 0.00000000)
		(2.27932961 0.25903044 0.00000000)
		(2.29608939 0.28395328 0.00000000)
		(2.31284916 0.30970521 0.00000000)
		(2.32960894 0.33618742 0.00000000)
		(2.34636872 0.36329827 0.00000000)
		(2.36312849 0.39093373 0.00000000)
		(2.37988827 0.41898775 0.00000000)
		(2.39664804 0.44735265 0.00000000)
		(2.41340782 0.47591959 0.00000000)
		(2.43016760 0.50457895 0.00000000)
		(2.44692737 0.53322073 0.00000000)
		(2.46368715 0.56173502 0.00000000)
		(2.48044693 0.59001240 0.00000000)
		(2.49720670 0.61794435 0.00000000)
		(2.51396648 0.64542368 0.00000000)