/*--------------------------------*- C++ -*----------------------------------*\\
/*--------------------------------*- C++ -*----------------------------------*\\
| =========                 |                                                 |
| \\\\      /  F ield         | OpenFOAM: The Open Source CFD Toolbox           |
|  \\\\    /   O peration     | Version:  v2012                                 |
|   \\\\  /    A nd           | Website:  www.openfoam.com                      |
|    \\\\/     M anipulation  |                                                 |
\\*---------------------------------------------------------------------------*/
FoamFile
{
    version     2.0;
    format      ascii;
    class       dictionary;
    object      blockMeshDict;
}
// * * * * * * * * * * * * * * * * * * * * * * * * * * * * * * * * * * * * * //

scale   0.01;

xmin -1;
xmax 5;
ymin 0;
ymax 0.5;
zmin 0;
zmax 0.1;

vertices
(
    (-1.00000000 0.23875324 0.00000000)
    (4.00000000 -0.19779819 0.00000000)
    (4.00000000 0.30220181 0.00000000)
    (-1.00000000 0.73875324 0.00000000)
    (-1.00000000 0.23875324 0.10000000)
    (4.00000000 -0.19779819 0.10000000)
    (4.00000000 0.30220181 0.10000000)
    (-1.00000000 0.73875324 0.10000000)
);

blocks
(
    hex (0 1 2 3 4 5 6 7) (200 20 1) simpleGrading (1 1 1)
);

edges
(
	polyLine 0 1
	(
		(-1.00000000 0.23875324 0.00000000)
		(-0.98000000 0.23875324 0.00000000)
		(-0.96000000 0.23875324 0.00000000)
		(-0.94000000 0.23875324 0.00000000)
		(-0.92000000 0.23875324 0.00000000)
		(-0.90000000 0.23875324 0.00000000)
		(-0.88000000 0.23875324 0.00000000)
		(-0.86000000 0.23875324 0.00000000)
		(-0.84000000 0.23875324 0.00000000)
		(-0.82000000 0.23875324 0.00000000)
		(-0.80000000 0.23875324 0.00000000)
		(-0.78000000 0.23875324 0.00000000)
		(-0.76000000 0.23875324 0.00000000)
		(-0.74000000 0.23875324 0.00000000)
		(-0.72000000 0.23875324 0.00000000)
		(-0.70000000 0.23875324 0.00000000)
		(-0.68000000 0.23875324 0.00000000)
		(-0.66000000 0.23875324 0.00000000)
		(-0.64000000 0.23875324 0.00000000)
		(-0.62000000 0.23875324 0.00000000)
		(-0.60000000 0.23875324 0.00000000)
		(-0.58000000 0.23875324 0.00000000)
		(-0.56000000 0.23875324 0.00000000)
		(-0.54000000 0.23875324 0.00000000)
		(-0.52000000 0.23875324 0.00000000)
		(-0.50000000 0.23875324 0.00000000)
		(-0.48000000 0.23875324 0.00000000)
		(-0.46000000 0.23875324 0.00000000)
		(-0.44000000 0.23875324 0.00000000)
		(-0.42000000 0.23875324 0.00000000)
		(-0.40000000 0.23875324 0.00000000)
		(-0.38000000 0.23875324 0.00000000)
		(-0.36000000 0.23875324 0.00000000)
		(-0.34000000 0.23875324 0.00000000)
		(-0.32000000 0.23875324 0.00000000)
		(-0.30000000 0.23875324 0.00000000)
		(-0.28000000 0.23875324 0.00000000)
		(-0.26000000 0.23875324 0.00000000)
		(-0.24000000 0.23875324 0.00000000)
		(-0.22000000 0.23875324 0.00000000)
		(-0.20000000 0.23875324 0.00000000)
		(-0.18000000 0.23875324 0.00000000)
		(-0.16000000 0.23875324 0.00000000)
		(-0.14000000 0.23875324 0.00000000)
		(-0.12000000 0.23875324 0.00000000)
		(-0.10000000 0.23875324 0.00000000)
		(-0.08162011 0.23825660 0.00000000)
		(-0.06324022 0.23676667 0.00000000)
		(-0.04486034 0.23428347 0.00000000)
		(-0.02648045 0.23080697 0.00000000)
		(-0.00810056 0.22633720 0.00000000)
		(0.01027933 0.22087414 0.00000000)
		(0.02865922 0.21441780 0.00000000)
		(0.04703911 0.20696817 0.00000000)
		(0.06541899 0.19852526 0.00000000)
		(0.08379888 0.18908907 0.00000000)
		(0.10055866 0.17498782 0.00000000)
		(0.11731844 0.15969924 0.00000000)
		(0.13407821 0.14332706 0.00000000)
		(0.15083799 0.12598238 0.00000000)
		(0.16759777 0.10778288 0.00000000)
		(0.18435754 0.08885205 0.00000000)
		(0.20111732 0.06931834 0.00000000)
		(0.21787709 0.04931430 0.00000000)
		(0.23463687 0.02897564 0.00000000)
		(0.25139665 0.00844038 0.00000000)
		(0.26815642 -0.01215215 0.00000000)
		(0.28491620 -0.03266223 0.00000000)
		(0.30167598 -0.05295068 0.00000000)
		(0.31843575 -0.07287986 0.00000000)
		(0.33519553 -0.09231453 0.00000000)
		(0.35195531 -0.11112282 0.00000000)
		(0.36871508 -0.12917713 0.00000000)
		(0.38547486 -0.14635494 0.00000000)
		(0.40223464 -0.16253970 0.00000000)
		(0.41899441 -0.17762159 0.00000000)
		(0.43575419 -0.19149828 0.00000000)
		(0.45251397 -0.20407562 0.00000000)
		(0.46927374 -0.21526826 0.00000000)
		(0.48603352 -0.22500026 0.00000000)
		(0.50279330 -0.23320559 0.00000000)
		(0.51955307 -0.23982856 0.00000000)
		(0.53631285 -0.24482425 0.00000000)
		(0.55307263 -0.24815876 0.00000000)
		(0.56983240 -0.24980945 0.00000000)
		(0.58659218 -0.24976514 0.00000000)
		(0.60335196 -0.24802611 0.00000000)
		(0.62011173 -0.24460418 0.00000000)
		(0.63687151 -0.23952255 0.00000000)
		(0.65363128 -0.23281571 0.00000000)
		(0.67039106 -0.22452917 0.00000000)
		(0.68715084 -0.21471915 0.00000000)
		(0.70391061 -0.20345222 0.00000000)
		(0.72067039 -0.19080482 0.00000000)
		(0.73743017 -0.17686277 0.00000000)
		(0.75418994 -0.16172066 0.00000000)
		(0.77094972 -0.14548125 0.00000000)
		(0.78770950 -0.12825472 0.00000000)
		(0.80446927 -0.11015795 0.00000000)
		(0.82122905 -0.09131374 0.00000000)
		(0.83798883 -0.07184994 0.00000000)
		(0.85474860 -0.05189863 0.00000000)
		(0.87150838 -0.03159517 0.00000000)
		(0.88826816 -0.01107733 0.00000000)
		(0.90502793 0.00951567 0.00000000)
		(0.92178771 0.03004410 0.00000000)
		(0.93854749 0.05036868 0.00000000)
		(0.95530726 0.07035149 0.00000000)
		(0.97206704 0.08985696 0.00000000)
		(0.98882682 0.10875273 0.00000000)
		(1.00558659 0.12691058 0.00000000)
		(1.02234637 0.14420732 0.00000000)
		(1.03910615 0.16052559 0.00000000)
		(1.05586592 0.17575465 0.00000000)
		(1.07262570 0.18979118 0.00000000)
		(1.08938547 0.20253994 0.00000000)
		(1.10614525 0.21391442 0.00000000)
		(1.12290503 0.22383745 0.00000000)
		(1.13966480 0.23224169 0.00000000)
		(1.15642458 0.23907013 0.00000000)
		(1.17318436 0.24427642 0.00000000)
		(1.18994413 0.24782524 0.00000000)
		(1.20670391 0.24969252 0.00000000)
		(1.22346369 0.24986558 0.00000000)
		(1.24022346 0.24834325 0.00000000)
		(1.25698324 0.24513586 0.00000000)
		(1.27374302 0.24026517 0.00000000)
		(1.29050279 0.23376423 0.00000000)
		(1.30726257 0.22567715 0.00000000)
		(1.32402235 0.21605880 0.00000000)
		(1.34078212 0.20497445 0.00000000)
		(1.35754190 0.19249930 0.00000000)
		(1.37430168 0.17871801 0.00000000)
		(1.39106145 0.16372407 0.00000000)
		(1.40782123 0.14761923 0.00000000)
		(1.42458101 0.13051277 0.00000000)
		(1.44134078 0.11252074 0.00000000)
		(1.45810056 0.09376525 0.00000000)
		(1.47486034 0.07437353 0.00000000)
		(1.49162011 0.05447717 0.00000000)
		(1.50837989 0.03421118 0.00000000)
		(1.52513966 0.01371305 0.00000000)
		(1.54189944 -0.00687812 0.00000000)
		(1.55865922 -0.02742263 0.00000000)
		(1.57541899 -0.04778106 0.00000000)
		(1.59217877 -0.06781529 0.00000000)
		(1.60893855 -0.08738938 0.00000000)
		(1.62569832 -0.10637051 0.00000000)
		(1.64245810 -0.12462990 0.00000000)
		(1.65921788 -0.14204364 0.00000000)
		(1.67597765 -0.15849359 0.00000000)
		(1.69273743 -0.17386813 0.00000000)
		(1.70949721 -0.18806294 0.00000000)
		(1.72625698 -0.20098170 0.00000000)
		(1.74301676 -0.21253675 0.00000000)
		(1.75977654 -0.22264970 0.00000000)
		(1.77653631 -0.23125192 0.00000000)
		(1.79329609 -0.23828505 0.00000000)
		(1.81005587 -0.24370137 0.00000000)
		(1.82681564 -0.24746411 0.00000000)
		(1.84357542 -0.24954777 0.00000000)
		(1.86033520 -0.24993819 0.00000000)
		(1.87709497 -0.24863272 0.00000000)
		(1.89385475 -0.24564023 0.00000000)
		(1.91061453 -0.24098102 0.00000000)
		(1.92737430 -0.23468670 0.00000000)
		(1.94413408 -0.22679998 0.00000000)
		(1.96089385 -0.21737438 0.00000000)
		(1.97765363 -0.20647384 0.00000000)
		(1.99441341 -0.19417234 0.00000000)
		(2.01117318 -0.18055333 0.00000000)
		(2.02793296 -0.16570924 0.00000000)
		(2.04469274 -0.14974077 0.00000000)
		(2.06145251 -0.13275627 0.00000000)
		(2.07821229 -0.11487100 0.00000000)
		(2.09497207 -0.09620631 0.00000000)
		(2.11173184 -0.07688883 0.00000000)
		(2.12849162 -0.05704965 0.00000000)
		(2.14525140 -0.03682337 0.00000000)
		(2.16201117 -0.01634724 0.00000000)
		(2.17877095 0.00423981 0.00000000)
		(2.19553073 0.02479809 0.00000000)
		(2.21229050 0.04518812 0.00000000)
		(2.22905028 0.06527153 0.00000000)
		(2.24581006 0.08491206 0.00000000)
		(2.26256983 0.10397644 0.00000000)
		(2.27932961 0.12233533 0.00000000)
		(2.29608939 0.13986414 0.00000000)
		(2.31284916 0.15644394 0.00000000)
		(2.32960894 0.17196224 0.00000000)
		(2.34636872 0.18631373 0.00000000)
		(2.36312849 0.19940105 0.00000000)
		(2.37988827 0.21113539 0.00000000)
		(2.39664804 0.22143714 0.00000000)
		(2.41340782 0.23023638 0.00000000)
		(2.43016760 0.23747342 0.00000000)
		(2.44692737 0.24309916 0.00000000)
		(2.46368715 0.24707541 0.00000000)
		(2.48044693 0.24937521 0.00000000)
		(2.49720670 0.24998294 0.00000000)
		(2.51396648 0.24889449 0.00000000)
		(2.53072626 0.24611723 0.00000000)
		(2.54748603 0.24167002 0.00000000)
		(2.56424581 0.23558302 0.00000000)
		(2.58100559 0.22789754 0.00000000)
		(2.59776536 0.21866573 0.00000000)
		(2.61452514 0.20795023 0.00000000)
		(2.63128492 0.19582374 0.00000000)
		(2.64804469 0.18236854 0.00000000)
		(2.66480447 0.16767594 0.00000000)
		(2.68156425 0.15184561 0.00000000)
		(2.69832402 0.13498499 0.00000000)
		(2.71508380 0.11720846 0.00000000)
		(2.73184358 0.09863665 0.00000000)
		(2.74860335 0.07939557 0.00000000)
		(2.76536313 0.05961577 0.00000000)
		(2.78212291 0.03943146 0.00000000)
		(2.79888268 0.01897961 0.00000000)
		(2.81564246 -0.00160103 0.00000000)
		(2.83240223 -0.02217080 0.00000000)
		(2.84916201 -0.04259014 0.00000000)
		(2.86592179 -0.06272050 0.00000000)
		(2.88268156 -0.08242528 0.00000000)
		(2.89944134 -0.10157079 0.00000000)
		(2.91620112 -0.12002712 0.00000000)
		(2.93296089 -0.13766904 0.00000000)
		(2.95166480 -0.14909358 0.00000000)
		(2.97036872 -0.15931554 0.00000000)
		(2.98907263 -0.16833491 0.00000000)
		(3.00777654 -0.17615170 0.00000000)
		(3.02648045 -0.18276591 0.00000000)
		(3.04518436 -0.18817753 0.00000000)
		(3.06388827 -0.19238657 0.00000000)
		(3.08259218 -0.19539303 0.00000000)
		(3.10129609 -0.19719690 0.00000000)
		(3.12000000 -0.19779819 0.00000000)
		(3.14000000 -0.19779819 0.00000000)
		(3.16000000 -0.19779819 0.00000000)
		(3.18000000 -0.19779819 0.00000000)
		(3.20000000 -0.19779819 0.00000000)
		(3.22000000 -0.19779819 0.00000000)
		(3.24000000 -0.19779819 0.00000000)
		(3.26000000 -0.19779819 0.00000000)
		(3.28000000 -0.19779819 0.00000000)
		(3.30000000 -0.19779819 0.00000000)
		(3.32000000 -0.19779819 0.00000000)
		(3.34000000 -0.19779819 0.00000000)
		(3.36000000 -0.19779819 0.00000000)
		(3.38000000 -0.19779819 0.00000000)
		(3.40000000 -0.19779819 0.00000000)
		(3.42000000 -0.19779819 0.00000000)
		(3.44000000 -0.19779819 0.00000000)
		(3.46000000 -0.19779819 0.00000000)
		(3.48000000 -0.19779819 0.00000000)
		(3.50000000 -0.19779819 0.00000000)
		(3.52000000 -0.19779819 0.00000000)
		(3.54000000 -0.19779819 0.00000000)
		(3.56000000 -0.19779819 0.00000000)
		(3.58000000 -0.19779819 0.00000000)
		(3.60000000 -0.19779819 0.00000000)
		(3.62000000 -0.19779819 0.00000000)
		(3.64000000 -0.19779819 0.00000000)
		(3.66000000 -0.19779819 0.00000000)
		(3.68000000 -0.19779819 0.00000000)
		(3.70000000 -0.19779819 0.00000000)
		(3.72000000 -0.19779819 0.00000000)
		(3.74000000 -0.19779819 0.00000000)
		(3.76000000 -0.19779819 0.00000000)
		(3.78000000 -0.19779819 0.00000000)
		(3.80000000 -0.19779819 0.00000000)
		(3.82000000 -0.19779819 0.00000000)
		(3.84000000 -0.19779819 0.00000000)
		(3.86000000 -0.19779819 0.00000000)
		(3.88000000 -0.19779819 0.00000000)
		(3.90000000 -0.19779819 0.00000000)
		(3.92000000 -0.19779819 0.00000000)
		(3.94000000 -0.19779819 0.00000000)
		(3.96000000 -0.19779819 0.00000000)
		(3.98000000 -0.19779819 0.00000000)
		(4.00000000 -0.19779819 0.00000000)
	)
	polyLine 4 5
	(
		(-1.00000000 0.23875324 0.10000000)
		(-0.98000000 0.23875324 0.10000000)
		(-0.96000000 0.23875324 0.10000000)
		(-0.94000000 0.23875324 0.10000000)
		(-0.92000000 0.23875324 0.10000000)
		(-0.90000000 0.23875324 0.10000000)
		(-0.88000000 0.23875324 0.10000000)
		(-0.86000000 0.23875324 0.10000000)
		(-0.84000000 0.23875324 0.10000000)
		(-0.82000000 0.23875324 0.10000000)
		(-0.80000000 0.23875324 0.10000000)
		(-0.78000000 0.23875324 0.10000000)
		(-0.76000000 0.23875324 0.10000000)
		(-0.74000000 0.23875324 0.10000000)
		(-0.72000000 0.23875324 0.10000000)
		(-0.70000000 0.23875324 0.10000000)
		(-0.68000000 0.23875324 0.10000000)
		(-0.66000000 0.23875324 0.10000000)
		(-0.64000000 0.23875324 0.10000000)
		(-0.62000000 0.23875324 0.10000000)
		(-0.60000000 0.23875324 0.10000000)
		(-0.58000000 0.23875324 0.10000000)
		(-0.56000000 0.23875324 0.10000000)
		(-0.54000000 0.23875324 0.10000000)
		(-0.52000000 0.23875324 0.10000000)
		(-0.50000000 0.23875324 0.10000000)
		(-0.48000000 0.23875324 0.10000000)
		(-0.46000000 0.23875324 0.10000000)
		(-0.44000000 0.23875324 0.10000000)
		(-0.42000000 0.23875324 0.10000000)
		(-0.40000000 0.23875324 0.10000000)
		(-0.38000000 0.23875324 0.10000000)
		(-0.36000000 0.23875324 0.10000000)
		(-0.34000000 0.23875324 0.10000000)
		(-0.32000000 0.23875324 0.10000000)
		(-0.30000000 0.23875324 0.10000000)
		(-0.28000000 0.23875324 0.10000000)
		(-0.26000000 0.23875324 0.10000000)
		(-0.24000000 0.23875324 0.10000000)
		(-0.22000000 0.23875324 0.10000000)
		(-0.20000000 0.23875324 0.10000000)
		(-0.18000000 0.23875324 0.10000000)
		(-0.16000000 0.23875324 0.10000000)
		(-0.14000000 0.23875324 0.10000000)
		(-0.12000000 0.23875324 0.10000000)
		(-0.10000000 0.23875324 0.10000000)
		(-0.08162011 0.23825660 0.10000000)
		(-0.06324022 0.23676667 0.10000000)
		(-0.04486034 0.23428347 0.10000000)
		(-0.02648045 0.23080697 0.10000000)
		(-0.00810056 0.22633720 0.10000000)
		(0.01027933 0.22087414 0.10000000)
		(0.02865922 0.21441780 0.10000000)
		(0.04703911 0.20696817 0.10000000)
		(0.06541899 0.19852526 0.10000000)
		(0.08379888 0.18908907 0.10000000)
		(0.10055866 0.17498782 0.10000000)
		(0.11731844 0.15969924 0.10000000)
		(0.13407821 0.14332706 0.10000000)
		(0.15083799 0.12598238 0.10000000)
		(0.16759777 0.10778288 0.10000000)
		(0.18435754 0.08885205 0.10000000)
		(0.20111732 0.06931834 0.10000000)
		(0.21787709 0.04931430 0.10000000)
		(0.23463687 0.02897564 0.10000000)
		(0.25139665 0.00844038 0.10000000)
		(0.26815642 -0.01215215 0.10000000)
		(0.28491620 -0.03266223 0.10000000)
		(0.30167598 -0.05295068 0.10000000)
		(0.31843575 -0.07287986 0.10000000)
		(0.33519553 -0.09231453 0.10000000)
		(0.35195531 -0.11112282 0.10000000)
		(0.36871508 -0.12917713 0.10000000)
		(0.38547486 -0.14635494 0.10000000)
		(0.40223464 -0.16253970 0.10000000)
		(0.41899441 -0.17762159 0.10000000)
		(0.43575419 -0.19149828 0.10000000)
		(0.45251397 -0.20407562 0.10000000)
		(0.46927374 -0.21526826 0.10000000)
		(0.48603352 -0.22500026 0.10000000)
		(0.50279330 -0.23320559 0.10000000)
		(0.51955307 -0.23982856 0.10000000)
		(0.53631285 -0.24482425 0.10000000)
		(0.55307263 -0.24815876 0.10000000)
		(0.56983240 -0.24980945 0.10000000)
		(0.58659218 -0.24976514 0.10000000)
		(0.60335196 -0.24802611 0.10000000)
		(0.62011173 -0.24460418 0.10000000)
		(0.63687151 -0.23952255 0.10000000)
		(0.65363128 -0.23281571 0.10000000)
		(0.67039106 -0.22452917 0.10000000)
		(0.68715084 -0.21471915 0.10000000)
		(0.70391061 -0.20345222 0.10000000)
		(0.72067039 -0.19080482 0.10000000)
		(0.73743017 -0.17686277 0.10000000)
		(0.75418994 -0.16172066 0.10000000)
		(0.77094972 -0.14548125 0.10000000)
		(0.78770950 -0.12825472 0.10000000)
		(0.80446927 -0.11015795 0.10000000)
		(0.82122905 -0.09131374 0.10000000)
		(0.83798883 -0.07184994 0.10000000)
		(0.85474860 -0.05189863 0.10000000)
		(0.87150838 -0.03159517 0.10000000)
		(0.88826816 -0.01107733 0.10000000)
		(0.90502793 0.00951567 0.10000000)
		(0.92178771 0.03004410 0.10000000)
		(0.93854749 0.05036868 0.10000000)
		(0.95530726 0.07035149 0.10000000)
		(0.97206704 0.08985696 0.10000000)
		(0.98882682 0.10875273 0.10000000)
		(1.00558659 0.12691058 0.10000000)
		(1.02234637 0.14420732 0.10000000)
		(1.03910615 0.16052559 0.10000000)
		(1.05586592 0.17575465 0.10000000)
		(1.07262570 0.18979118 0.10000000)
		(1.08938547 0.20253994 0.10000000)
		(1.10614525 0.21391442 0.10000000)
		(1.12290503 0.22383745 0.10000000)
		(1.13966480 0.23224169 0.10000000)
		(1.15642458 0.23907013 0.10000000)
		(1.17318436 0.24427642 0.10000000)
		(1.18994413 0.24782524 0.10000000)
		(1.20670391 0.24969252 0.10000000)
		(1.22346369 0.24986558 0.10000000)
		(1.24022346 0.24834325 0.10000000)
		(1.25698324 0.24513586 0.10000000)
		(1.27374302 0.24026517 0.10000000)
		(1.29050279 0.23376423 0.10000000)
		(1.30726257 0.22567715 0.10000000)
		(1.32402235 0.21605880 0.10000000)
		(1.34078212 0.20497445 0.10000000)
		(1.35754190 0.19249930 0.10000000)
		(1.37430168 0.17871801 0.10000000)
		(1.39106145 0.16372407 0.10000000)
		(1.40782123 0.14761923 0.10000000)
		(1.42458101 0.13051277 0.10000000)
		(1.44134078 0.11252074 0.10000000)
		(1.45810056 0.09376525 0.10000000)
		(1.47486034 0.07437353 0.10000000)
		(1.49162011 0.05447717 0.10000000)
		(1.50837989 0.03421118 0.10000000)
		(1.52513966 0.01371305 0.10000000)
		(1.54189944 -0.00687812 0.10000000)
		(1.55865922 -0.02742263 0.10000000)
		(1.57541899 -0.04778106 0.10000000)
		(1.59217877 -0.06781529 0.10000000)
		(1.60893855 -0.08738938 0.10000000)
		(1.62569832 -0.10637051 0.10000000)
		(1.64245810 -0.12462990 0.10000000)
		(1.65921788 -0.14204364 0.10000000)
		(1.67597765 -0.15849359 0.10000000)
		(1.69273743 -0.17386813 0.10000000)
		(1.70949721 -0.18806294 0.10000000)
		(1.72625698 -0.20098170 0.10000000)
		(1.74301676 -0.21253675 0.10000000)
		(1.75977654 -0.22264970 0.10000000)
		(1.77653631 -0.23125192 0.10000000)
		(1.79329609 -0.23828505 0.10000000)
		(1.81005587 -0.24370137 0.10000000)
		(1.82681564 -0.24746411 0.10000000)
		(1.84357542 -0.24954777 0.10000000)
		(1.86033520 -0.24993819 0.10000000)
		(1.87709497 -0.24863272 0.10000000)
		(1.89385475 -0.24564023 0.10000000)
		(1.91061453 -0.24098102 0.10000000)
		(1.92737430 -0.23468670 0.10000000)
		(1.94413408 -0.22679998 0.10000000)
		(1.96089385 -0.21737438 0.10000000)
		(1.97765363 -0.20647384 0.10000000)
		(1.99441341 -0.19417234 0.10000000)
		(2.01117318 -0.18055333 0.10000000)
		(2.02793296 -0.16570924 0.10000000)
		(2.04469274 -0.14974077 0.10000000)
		(2.06145251 -0.13275627 0.10000000)
		(2.07821229 -0.11487100 0.10000000)
		(2.09497207 -0.09620631 0.10000000)
		(2.11173184 -0.07688883 0.10000000)
		(2.12849162 -0.05704965 0.10000000)
		(2.14525140 -0.03682337 0.10000000)
		(2.16201117 -0.01634724 0.10000000)
		(2.17877095 0.00423981 0.10000000)
		(2.19553073 0.02479809 0.10000000)
		(2.21229050 0.04518812 0.10000000)
		(2.22905028 0.06527153 0.10000000)
		(2.24581006 0.08491206 0.10000000)
		(2.26256983 0.10397644 0.10000000)
		(2.27932961 0.12233533 0.10000000)
		(2.29608939 0.13986414 0.10000000)
		(2.31284916 0.15644394 0.10000000)
		(2.32960894 0.17196224 0.10000000)
		(2.34636872 0.18631373 0.10000000)
		(2.36312849 0.19940105 0.10000000)
		(2.37988827 0.21113539 0.10000000)
		(2.39664804 0.22143714 0.10000000)
		(2.41340782 0.23023638 0.10000000)
		(2.43016760 0.23747342 0.10000000)
		(2.44692737 0.24309916 0.10000000)
		(2.46368715 0.24707541 0.10000000)
		(2.48044693 0.24937521 0.10000000)
		(2.49720670 0.24998294 0.10000000)
		(2.51396648 0.24889449 0.10000000)
		(2.53072626 0.24611723 0.10000000)
		(2.54748603 0.24167002 0.10000000)
		(2.56424581 0.23558302 0.10000000)
		(2.58100559 0.22789754 0.10000000)
		(2.59776536 0.21866573 0.10000000)
		(2.61452514 0.20795023 0.10000000)
		(2.63128492 0.19582374 0.10000000)
		(2.64804469 0.18236854 0.10000000)
		(2.66480447 0.16767594 0.10000000)
		(2.68156425 0.15184561 0.10000000)
		(2.69832402 0.13498499 0.10000000)
		(2.71508380 0.11720846 0.10000000)
		(2.73184358 0.09863665 0.10000000)
		(2.74860335 0.07939557 0.10000000)
		(2.76536313 0.05961577 0.10000000)
		(2.78212291 0.03943146 0.10000000)
		(2.79888268 0.01897961 0.10000000)
		(2.81564246 -0.00160103 0.10000000)
		(2.83240223 -0.02217080 0.10000000)
		(2.84916201 -0.04259014 0.10000000)
		(2.86592179 -0.06272050 0.10000000)
		(2.88268156 -0.08242528 0.10000000)
		(2.89944134 -0.10157079 0.10000000)
		(2.91620112 -0.12002712 0.10000000)
		(2.93296089 -0.13766904 0.10000000)
		(2.95166480 -0.14909358 0.10000000)
		(2.97036872 -0.15931554 0.10000000)
		(2.98907263 -0.16833491 0.10000000)
		(3.00777654 -0.17615170 0.10000000)
		(3.02648045 -0.18276591 0.10000000)
		(3.04518436 -0.18817753 0.10000000)
		(3.06388827 -0.19238657 0.10000000)
		(3.08259218 -0.19539303 0.10000000)
		(3.10129609 -0.19719690 0.10000000)
		(3.12000000 -0.19779819 0.10000000)
		(3.14000000 -0.19779819 0.10000000)
		(3.16000000 -0.19779819 0.10000000)
		(3.18000000 -0.19779819 0.10000000)
		(3.20000000 -0.19779819 0.10000000)
		(3.22000000 -0.19779819 0.10000000)
		(3.24000000 -0.19779819 0.10000000)
		(3.26000000 -0.19779819 0.10000000)
		(3.28000000 -0.19779819 0.10000000)
		(3.30000000 -0.19779819 0.10000000)
		(3.32000000 -0.19779819 0.10000000)
		(3.34000000 -0.19779819 0.10000000)
		(3.36000000 -0.19779819 0.10000000)
		(3.38000000 -0.19779819 0.10000000)
		(3.40000000 -0.19779819 0.10000000)
		(3.42000000 -0.19779819 0.10000000)
		(3.44000000 -0.19779819 0.10000000)
		(3.46000000 -0.19779819 0.10000000)
		(3.48000000 -0.19779819 0.10000000)
		(3.50000000 -0.19779819 0.10000000)
		(3.52000000 -0.19779819 0.10000000)
		(3.54000000 -0.19779819 0.10000000)
		(3.56000000 -0.19779819 0.10000000)
		(3.58000000 -0.19779819 0.10000000)
		(3.60000000 -0.19779819 0.10000000)
		(3.62000000 -0.19779819 0.10000000)
		(3.64000000 -0.19779819 0.10000000)
		(3.66000000 -0.19779819 0.10000000)
		(3.68000000 -0.19779819 0.10000000)
		(3.70000000 -0.19779819 0.10000000)
		(3.72000000 -0.19779819 0.10000000)
		(3.74000000 -0.19779819 0.10000000)
		(3.76000000 -0.19779819 0.10000000)
		(3.78000000 -0.19779819 0.10000000)
		(3.80000000 -0.19779819 0.10000000)
		(3.82000000 -0.19779819 0.10000000)
		(3.84000000 -0.19779819 0.10000000)
		(3.86000000 -0.19779819 0.10000000)
		(3.88000000 -0.19779819 0.10000000)
		(3.90000000 -0.19779819 0.10000000)
		(3.92000000 -0.19779819 0.10000000)
		(3.94000000 -0.19779819 0.10000000)
		(3.96000000 -0.19779819 0.10000000)
		(3.98000000 -0.19779819 0.10000000)
		(4.00000000 -0.19779819 0.10000000)
	)
	polyLine 3 2
	(
		(-1.00000000 0.73875324 0.00000000)
		(-0.98000000 0.73865271 0.00000000)
		(-0.96000000 0.73855219 0.00000000)
		(-0.94000000 0.73845166 0.00000000)
		(-0.92000000 0.73835113 0.00000000)
		(-0.90000000 0.73825060 0.00000000)
		(-0.88000000 0.73815008 0.00000000)
		(-0.86000000 0.73804955 0.00000000)
		(-0.84000000 0.73794902 0.00000000)
		(-0.82000000 0.73784850 0.00000000)
		(-0.80000000 0.73774797 0.00000000)
		(-0.78000000 0.73764744 0.00000000)
		(-0.76000000 0.73754691 0.00000000)
		(-0.74000000 0.73744639 0.00000000)
		(-0.72000000 0.73734586 0.00000000)
		(-0.70000000 0.73724533 0.00000000)
		(-0.68000000 0.73714480 0.00000000)
		(-0.66000000 0.73704428 0.00000000)
		(-0.64000000 0.73694375 0.00000000)
		(-0.62000000 0.73684322 0.00000000)
		(-0.60000000 0.73674269 0.00000000)
		(-0.58000000 0.73664217 0.00000000)
		(-0.56000000 0.73654164 0.00000000)
		(-0.54000000 0.73644111 0.00000000)
		(-0.52000000 0.73634059 0.00000000)
		(-0.50000000 0.73624006 0.00000000)
		(-0.48000000 0.73613953 0.00000000)
		(-0.46000000 0.73603900 0.00000000)
		(-0.44000000 0.73593848 0.00000000)
		(-0.42000000 0.73583795 0.00000000)
		(-0.40000000 0.73573742 0.00000000)
		(-0.38000000 0.73563689 0.00000000)
		(-0.36000000 0.73553637 0.00000000)
		(-0.34000000 0.73543584 0.00000000)
		(-0.32000000 0.73533531 0.00000000)
		(-0.30000000 0.73523478 0.00000000)
		(-0.28000000 0.73513426 0.00000000)
		(-0.26000000 0.73503373 0.00000000)
		(-0.24000000 0.73493320 0.00000000)
		(-0.22000000 0.73483267 0.00000000)
		(-0.20000000 0.73473215 0.00000000)
		(-0.18000000 0.73463162 0.00000000)
		(-0.16000000 0.73453109 0.00000000)
		(-0.14000000 0.73443057 0.00000000)
		(-0.12000000 0.73433004 0.00000000)
		(-0.10000000 0.73422951 0.00000000)
		(-0.08162011 0.73448491 0.00000000)
		(-0.06324022 0.73359374 0.00000000)
		(-0.04486034 0.73155600 0.00000000)
		(-0.02648045 0.72837169 0.00000000)
		(-0.00810056 0.72404081 0.00000000)
		(0.01027933 0.71856337 0.00000000)
		(0.02865922 0.71193935 0.00000000)
		(0.04703911 0.70416876 0.00000000)
		(0.06541899 0.69525161 0.00000000)
		(0.08379888 0.68518788 0.00000000)
		(0.10055866 0.67137756 0.00000000)
		(0.11731844 0.65640440 0.00000000)
		(0.13407821 0.64037001 0.00000000)
		(0.15083799 0.62338317 0.00000000)
		(0.16759777 0.60555916 0.00000000)
		(0.18435754 0.58701890 0.00000000)
		(0.20111732 0.56788820 0.00000000)
		(0.21787709 0.54829687 0.00000000)
		(0.23463687 0.52837783 0.00000000)
		(0.25139665 0.50826624 0.00000000)
		(0.26815642 0.48809857 0.00000000)
		(0.28491620 0.46801164 0.00000000)
		(0.30167598 0.44814177 0.00000000)
		(0.31843575 0.42862376 0.00000000)
		(0.33519553 0.40959006 0.00000000)
		(0.35195531 0.39116981 0.00000000)
		(0.36871508 0.37348799 0.00000000)
		(0.38547486 0.35666459 0.00000000)
		(0.40223464 0.34081374 0.00000000)
		(0.41899441 0.32604301 0.00000000)
		(0.43575419 0.31245261 0.00000000)
		(0.45251397 0.30013477 0.00000000)
		(0.46927374 0.28917305 0.00000000)
		(0.48603352 0.27964183 0.00000000)
		(0.50279330 0.27160580 0.00000000)
		(0.51955307 0.26511946 0.00000000)
		(0.53631285 0.26022684 0.00000000)
		(0.55307263 0.25696113 0.00000000)
		(0.56983240 0.25534449 0.00000000)
		(0.58659218 0.25538790 0.00000000)
		(0.60335196 0.25709104 0.00000000)
		(0.62011173 0.26044238 0.00000000)
		(0.63687151 0.26541916 0.00000000)
		(0.65363128 0.27198763 0.00000000)
		(0.67039106 0.28010320 0.00000000)
		(0.68715084 0.28971083 0.00000000)
		(0.70391061 0.30074531 0.00000000)
		(0.72067039 0.31313177 0.00000000)
		(0.73743017 0.32678618 0.00000000)
		(0.75418994 0.34161588 0.00000000)
		(0.77094972 0.35752025 0.00000000)
		(0.78770950 0.37439137 0.00000000)
		(0.80446927 0.39211478 0.00000000)
		(0.82122905 0.41057020 0.00000000)
		(0.83798883 0.42963243 0.00000000)
		(0.85474860 0.44917212 0.00000000)
		(0.87150838 0.46905669 0.00000000)
		(0.88826816 0.48915121 0.00000000)
		(0.90502793 0.50931934 0.00000000)
		(0.92178771 0.52942425 0.00000000)
		(0.93854749 0.54932950 0.00000000)
		(0.95530726 0.56890004 0.00000000)
		(0.97206704 0.58800307 0.00000000)
		(0.98882682 0.60650899 0.00000000)
		(1.00558659 0.62429223 0.00000000)
		(1.02234637 0.64123211 0.00000000)
		(1.03910615 0.65721370 0.00000000)
		(1.05586592 0.67212857 0.00000000)
		(1.07262570 0.68587551 0.00000000)
		(1.08938547 0.69836124 0.00000000)
		(1.10614525 0.70950105 0.00000000)
		(1.12290503 0.71921935 0.00000000)
		(1.13966480 0.72745020 0.00000000)
		(1.15642458 0.73413775 0.00000000)
		(1.17318436 0.73923663 0.00000000)
		(1.18994413 0.74271223 0.00000000)
		(1.20670391 0.74454099 0.00000000)
		(1.22346369 0.74471048 0.00000000)
		(1.24022346 0.74321956 0.00000000)
		(1.25698324 0.74007834 0.00000000)
		(1.27374302 0.73530814 0.00000000)
		(1.29050279 0.72894132 0.00000000)
		(1.30726257 0.72102109 0.00000000)
		(1.32402235 0.71160118 0.00000000)
		(1.34078212 0.70074552 0.00000000)
		(1.35754190 0.68852775 0.00000000)
		(1.37430168 0.67503078 0.00000000)
		(1.39106145 0.66034620 0.00000000)
		(1.40782123 0.64457363 0.00000000)
		(1.42458101 0.62782009 0.00000000)
		(1.44134078 0.61019927 0.00000000)
		(1.45810056 0.59183073 0.00000000)
		(1.47486034 0.57283909 0.00000000)
		(1.49162011 0.55335323 0.00000000)
		(1.50837989 0.53350535 0.00000000)
		(1.52513966 0.51343013 0.00000000)
		(1.54189944 0.49326378 0.00000000)
		(1.55865922 0.47314314 0.00000000)
		(1.57541899 0.45320474 0.00000000)
		(1.59217877 0.43358384 0.00000000)
		(1.60893855 0.41441360 0.00000000)
		(1.62569832 0.39582407 0.00000000)
		(1.64245810 0.37794141 0.00000000)
		(1.65921788 0.36088693 0.00000000)
		(1.67597765 0.34477637 0.00000000)
		(1.69273743 0.32971903 0.00000000)
		(1.70949721 0.31581709 0.00000000)
		(1.72625698 0.30316486 0.00000000)
		(1.74301676 0.29184820 0.00000000)
		(1.75977654 0.28194390 0.00000000)
		(1.77653631 0.27351915 0.00000000)
		(1.79329609 0.26663113 0.00000000)
		(1.81005587 0.26132656 0.00000000)
		(1.82681564 0.25764144 0.00000000)
		(1.84357542 0.25560078 0.00000000)
		(1.86033520 0.25521842 0.00000000)
		(1.87709497 0.25649695 0.00000000)
		(1.89385475 0.25942770 0.00000000)
		(1.91061453 0.26399078 0.00000000)
		(1.92737430 0.27015524 0.00000000)
		(1.94413408 0.27787924 0.00000000)
		(1.96089385 0.28711038 0.00000000)
		(1.97765363 0.29778602 0.00000000)
		(1.99441341 0.30983373 0.00000000)
		(2.01117318 0.32317175 0.00000000)
		(2.02793296 0.33770960 0.00000000)
		(2.04469274 0.35334861 0.00000000)
		(2.06145251 0.36998269 0.00000000)
		(2.07821229 0.38749896 0.00000000)
		(2.09497207 0.40577857 0.00000000)
		(2.11173184 0.42469750 0.00000000)
		(2.12849162 0.44412737 0.00000000)
		(2.14525140 0.46393635 0.00000000)
		(2.16201117 0.48399003 0.00000000)
		(2.17877095 0.50415234 0.00000000)
		(2.19553073 0.52428647 0.00000000)
		(2.21229050 0.54425582 0.00000000)
		(2.22905028 0.56392488 0.00000000)
		(2.24581006 0.58316020 0.00000000)
		(2.26256983 0.60183125 0.00000000)
		(2.27932961 0.61981136 0.00000000)
		(2.29608939 0.63697853 0.00000000)
		(2.31284916 0.65321626 0.00000000)
		(2.32960894 0.66841440 0.00000000)
		(2.34636872 0.68246980 0.00000000)
		(2.36312849 0.69528711 0.00000000)
		(2.37988827 0.70677935 0.00000000)
		(2.39664804 0.71686855 0.00000000)
		(2.41340782 0.72548626 0.00000000)
		(2.43016760 0.73257399 0.00000000)
		(2.44692737 0.73808366 0.00000000)
		(2.46368715 0.74197787 0.00000000)
		(2.48044693 0.74423022 0.00000000)
		(2.49720670 0.74482542 0.00000000)
		(2.51396648 0.74375942 0.00000000)