/*--------------------------------*- C++ -*----------------------------------*\\
/*--------------------------------*- C++ -*----------------------------------*\\
| =========                 |                                                 |
| \\\\      /  F ield         | OpenFOAM: The Open Source CFD Toolbox           |
|  \\\\    /   O peration     | Version:  v2012                                 |
|   \\\\  /    A nd           | Website:  www.openfoam.com                      |
|    \\\\/     M anipulation  |                                                 |
\\*---------------------------------------------------------------------------*/
FoamFile
{
    version     2.0;
    format      ascii;
    class       dictionary;
    object      blockMeshDict;
}
// * * * * * * * * * * * * * * * * * * * * * * * * * * * * * * * * * * * * * //

scale   0.01;

xmin -1;
xmax 5;
ymin 0;
ymax 0.5;
zmin 0;
zmax 0.1;

vertices
(
    (-1.00000000 -0.24967701 0.00000000)
    (4.00000000 0.23230224 0.00000000)
    (4.00000000 0.73230224 0.00000000)
    (-1.00000000 0.25032299 0.00000000)
    (-1.00000000 -0.24967701 0.10000000)
    (4.00000000 0.23230224 0.10000000)
    (4.00000000 0.73230224 0.10000000)
    (-1.00000000 0.25032299 0.10000000)
);

blocks
(
    hex (0 1 2 3 4 5 6 7) (200 20 1) simpleGrading (1 1 1)
);

edges
(
	polyLine 0 1
	(
		(-1.00000000 -0.24967701 0.00000000)
		(-0.98000000 -0.24967701 0.00000000)
		(-0.96000000 -0.24967701 0.00000000)
		(-0.94000000 -0.24967701 0.00000000)
		(-0.92000000 -0.24967701 0.00000000)
		(-0.90000000 -0.24967701 0.00000000)
		(-0.88000000 -0.24967701 0.00000000)
		(-0.86000000 -0.24967701 0.00000000)
		(-0.84000000 -0.24967701 0.00000000)
		(-0.82000000 -0.24967701 0.00000000)
		(-0.80000000 -0.24967701 0.00000000)
		(-0.78000000 -0.24967701 0.00000000)
		(-0.76000000 -0.24967701 0.00000000)
		(-0.74000000 -0.24967701 0.00000000)
		(-0.72000000 -0.24967701 0.00000000)
		(-0.70000000 -0.24967701 0.00000000)
		(-0.68000000 -0.24967701 0.00000000)
		(-0.66000000 -0.24967701 0.00000000)
		(-0.64000000 -0.24967701 0.00000000)
		(-0.62000000 -0.24967701 0.00000000)
		(-0.60000000 -0.24967701 0.00000000)
		(-0.58000000 -0.24967701 0.00000000)
		(-0.56000000 -0.24967701 0.00000000)
		(-0.54000000 -0.24967701 0.00000000)
		(-0.52000000 -0.24967701 0.00000000)
		(-0.50000000 -0.24967701 0.00000000)
		(-0.48000000 -0.24967701 0.00000000)
		(-0.46000000 -0.24967701 0.00000000)
		(-0.44000000 -0.24967701 0.00000000)
		(-0.42000000 -0.24967701 0.00000000)
		(-0.40000000 -0.24967701 0.00000000)
		(-0.38000000 -0.24967701 0.00000000)
		(-0.36000000 -0.24967701 0.00000000)
		(-0.34000000 -0.24967701 0.00000000)
		(-0.32000000 -0.24967701 0.00000000)
		(-0.30000000 -0.24967701 0.00000000)
		(-0.28000000 -0.24967701 0.00000000)
		(-0.26000000 -0.24967701 0.00000000)
		(-0.24000000 -0.24967701 0.00000000)
		(-0.22000000 -0.24967701 0.00000000)
		(-0.20000000 -0.24967701 0.00000000)
		(-0.18000000 -0.24967701 0.00000000)
		(-0.16000000 -0.24967701 0.00000000)
		(-0.14000000 -0.24967701 0.00000000)
		(-0.12000000 -0.24967701 0.00000000)
		(-0.10000000 -0.24967701 0.00000000)
		(-0.08162011 -0.24948296 0.00000000)
		(-0.06324022 -0.24890083 0.00000000)
		(-0.04486034 -0.24793060 0.00000000)
		(-0.02648045 -0.24657229 0.00000000)
		(-0.00810056 -0.24482588 0.00000000)
		(0.01027933 -0.24269139 0.00000000)
		(0.02865922 -0.24016880 0.00000000)
		(0.04703911 -0.23725813 0.00000000)
		(0.06541899 -0.23395937 0.00000000)
		(0.08379888 -0.23027251 0.00000000)
		(0.10055866 -0.22057403 0.00000000)
		(0.11731844 -0.20908404 0.00000000)
		(0.13407821 -0.19589588 0.00000000)
		(0.15083799 -0.18111664 0.00000000)
		(0.16759777 -0.16486638 0.00000000)
		(0.18435754 -0.14727707 0.00000000)
		(0.20111732 -0.12849157 0.00000000)
		(0.21787709 -0.10866247 0.00000000)
		(0.23463687 -0.08795081 0.00000000)
		(0.25139665 -0.06652481 0.00000000)
		(0.26815642 -0.04455849 0.00000000)
		(0.28491620 -0.02223028 0.00000000)
		(0.30167598 0.00027849 0.00000000)
		(0.31843575 0.02278500 0.00000000)
		(0.33519553 0.04510645 0.00000000)
		(0.35195531 0.06706155 0.00000000)
		(0.36871508 0.08847197 0.00000000)
		(0.38547486 0.10916382 0.00000000)
		(0.40223464 0.12896904 0.00000000)
		(0.41899441 0.14772678 0.00000000)
		(0.43575419 0.16528468 0.00000000)
		(0.45251397 0.18150013 0.00000000)
		(0.46927374 0.19624144 0.00000000)
		(0.48603352 0.20938888 0.00000000)
		(0.50279330 0.22083566 0.00000000)
		(0.51955307 0.23048881 0.00000000)
		(0.53631285 0.23826993 0.00000000)
		(0.55307263 0.24411582 0.00000000)
		(0.56983240 0.24797900 0.00000000)
		(0.58659218 0.24982809 0.00000000)
		(0.60335196 0.24964808 0.00000000)
		(0.62011173 0.24744043 0.00000000)
		(0.63687151 0.24322306 0.00000000)
		(0.65363128 0.23703024 0.00000000)
		(0.67039106 0.22891226 0.00000000)
		(0.68715084 0.21893505 0.00000000)
		(0.70391061 0.20717964 0.00000000)
		(0.72067039 0.19374153 0.00000000)
		(0.73743017 0.17872984 0.00000000)
		(0.75418994 0.16226651 0.00000000)
		(0.77094972 0.14448525 0.00000000)
		(0.78770950 0.12553049 0.00000000)
		(0.80446927 0.10555616 0.00000000)
		(0.82122905 0.08472450 0.00000000)
		(0.83798883 0.06320471 0.00000000)
		(0.85474860 0.04117158 0.00000000)
		(0.87150838 0.01880404 0.00000000)
		(0.88826816 -0.00371622 0.00000000)
		(0.90502793 -0.02620629 0.00000000)
		(0.92178771 -0.04848352 0.00000000)
		(0.93854749 -0.07036697 0.00000000)
		(0.95530726 -0.09167889 0.00000000)
		(0.97206704 -0.11224620 0.00000000)
		(0.98882682 -0.13190184 0.00000000)
		(1.00558659 -0.15048618 0.00000000)
		(1.02234637 -0.16784827 0.00000000)
		(1.03910615 -0.18384709 0.00000000)
		(1.05586592 -0.19835271 0.00000000)
		(1.07262570 -0.21124730 0.00000000)
		(1.08938547 -0.22242614 0.00000000)
		(1.10614525 -0.23179844 0.00000000)
		(1.12290503 -0.23928807 0.00000000)
		(1.13966480 -0.24483420 0.00000000)
		(1.15642458 -0.24839179 0.00000000)
		(1.17318436 -0.24993194 0.00000000)
		(1.18994413 -0.24944214 0.00000000)
		(1.20670391 -0.24692637 0.00000000)
		(1.22346369 -0.24240506 0.00000000)
		(1.24022346 -0.23591494 0.00000000)
		(1.25698324 -0.22750871 0.00000000)
		(1.27374302 -0.21725466 0.00000000)
		(1.29050279 -0.20523607 0.00000000)
		(1.30726257 -0.19155054 0.00000000)
		(1.32402235 -0.17630925 0.00000000)
		(1.34078212 -0.15963597 0.00000000)
		(1.35754190 -0.14166612 0.00000000)
		(1.37430168 -0.12254566 0.00000000)
		(1.39106145 -0.10242989 0.00000000)
		(1.40782123 -0.08148218 0.00000000)
		(1.42458101 -0.05987267 0.00000000)
		(1.44134078 -0.03777687 0.00000000)
		(1.45810056 -0.01537426 0.00000000)
		(1.47486034 0.00715323 0.00000000)
		(1.49162011 0.02962262 0.00000000)
		(1.50837989 0.05185142 0.00000000)
		(1.52513966 0.07365907 0.00000000)
		(1.54189944 0.09486847 0.00000000)
		(1.55865922 0.11530735 0.00000000)
		(1.57541899 0.13480970 0.00000000)
		(1.59217877 0.15321712 0.00000000)
		(1.60893855 0.17038012 0.00000000)
		(1.62569832 0.18615928 0.00000000)
		(1.64245810 0.20042646 0.00000000)
		(1.65921788 0.21306578 0.00000000)
		(1.67597765 0.22397457 0.00000000)
		(1.69273743 0.23306424 0.00000000)
		(1.70949721 0.24026097 0.00000000)
		(1.72625698 0.24550629 0.00000000)
		(1.74301676 0.24875761 0.00000000)
		(1.75977654 0.24998852 0.00000000)
		(1.77653631 0.24918902 0.00000000)
		(1.79329609 0.24636561 0.00000000)
		(1.81005587 0.24154121 0.00000000)
		(1.82681564 0.23475502 0.00000000)
		(1.84357542 0.22606214 0.00000000)
		(1.86033520 0.21553319 0.00000000)
		(1.87709497 0.20325368 0.00000000)
		(1.89385475 0.18932334 0.00000000)
		(1.91061453 0.17385531 0.00000000)
		(1.92737430 0.15697523 0.00000000)
		(1.94413408 0.13882020 0.00000000)
		(1.96089385 0.11953767 0.00000000)
		(1.97765363 0.09928425 0.00000000)
		(1.99441341 0.07822445 0.00000000)
		(2.01117318 0.05652930 0.00000000)
		(2.02793296 0.03437503 0.00000000)
		(2.04469274 0.01194156 0.00000000)
		(2.06145251 -0.01058890 0.00000000)
		(2.07821229 -0.03303335 0.00000000)
		(2.09497207 -0.05520951 0.00000000)
		(2.11173184 -0.07693726 0.00000000)
		(2.12849162 -0.09804012 0.00000000)
		(2.14525140 -0.11834670 0.00000000)
		(2.16201117 -0.13769206 0.00000000)
		(2.17877095 -0.15591909 0.00000000)
		(2.19553073 -0.17287975 0.00000000)
		(2.21229050 -0.18843627 0.00000000)
		(2.22905028 -0.20246232 0.00000000)
		(2.24581006 -0.21484397 0.00000000)
		(2.26256983 -0.22548065 0.00000000)
		(2.27932961 -0.23428597 0.00000000)
		(2.29608939 -0.24118843 0.00000000)
		(2.31284916 -0.24613195 0.00000000)
		(2.32960894 -0.24907639 0.00000000)
		(2.34636872 -0.24999783 0.00000000)
		(2.36312849 -0.24888878 0.00000000)
		(2.37988827 -0.24575826 0.00000000)
		(2.39664804 -0.24063169 0.00000000)
		(2.41340782 -0.23355071 0.00000000)
		(2.43016760 -0.22457283 0.00000000)
		(2.44692737 -0.21377097 0.00000000)
		(2.46368715 -0.20123285 0.00000000)
		(2.48044693 -0.18706033 0.00000000)
		(2.49720670 -0.17136850 0.00000000)
		(2.51396648 -0.15428481 0.00000000)
		(2.53072626 -0.13594802 0.00000000)
		(2.54748603 -0.11650706 0.00000000)
		(2.56424581 -0.09611984 0.00000000)
		(2.58100559 -0.07495192 0.00000000)
		(2.59776536 -0.05317525 0.00000000)
		(2.61452514 -0.03096668 0.00000000)
		(2.63128492 -0.00850661 0.00000000)
		(2.64804469 0.01402256 0.00000000)
		(2.66480447 0.03643784 0.00000000)
		(2.68156425 0.05855716 0.00000000)
		(2.69832402 0.08020089 0.00000000)
		(2.71508380 0.10119322 0.00000000)
		(2.73184358 0.12136366 0.00000000)
		(2.74860335 0.14054839 0.00000000)
		(2.76536313 0.15859158 0.00000000)
		(2.78212291 0.17534669 0.00000000)
		(2.79888268 0.19067763 0.00000000)
		(2.81564246 0.20445989 0.00000000)
		(2.83240223 0.21658153 0.00000000)
		(2.84916201 0.22694408 0.00000000)
		(2.86592179 0.23546340 0.00000000)
		(2.88268156 0.24207029 0.00000000)
		(2.89944134 0.24671107 0.00000000)
		(2.91620112 0.24934807 0.00000000)
		(2.93296089 0.24995986 0.00000000)
		(2.95166480 0.24660492 0.00000000)
		(2.97036872 0.24360312 0.00000000)
		(2.98907263 0.24095447 0.00000000)
		(3.00777654 0.23865898 0.00000000)
		(3.02648045 0.23671664 0.00000000)
		(3.04518436 0.23512746 0.00000000)
		(3.06388827 0.23389142 0.00000000)
		(3.08259218 0.23300854 0.00000000)
		(3.10129609 0.23247881 0.00000000)
		(3.12000000 0.23230224 0.00000000)
		(3.14000000 0.23230224 0.00000000)
		(3.16000000 0.23230224 0.00000000)
		(3.18000000 0.23230224 0.00000000)
		(3.20000000 0.23230224 0.00000000)
		(3.22000000 0.23230224 0.00000000)
		(3.24000000 0.23230224 0.00000000)
		(3.26000000 0.23230224 0.00000000)
		(3.28000000 0.23230224 0.00000000)
		(3.30000000 0.23230224 0.00000000)
		(3.32000000 0.23230224 0.00000000)
		(3.34000000 0.23230224 0.00000000)
		(3.36000000 0.23230224 0.00000000)
		(3.38000000 0.23230224 0.00000000)
		(3.40000000 0.23230224 0.00000000)
		(3.42000000 0.23230224 0.00000000)
		(3.44000000 0.23230224 0.00000000)
		(3.46000000 0.23230224 0.00000000)
		(3.48000000 0.23230224 0.00000000)
		(3.50000000 0.23230224 0.00000000)
		(3.52000000 0.23230224 0.00000000)
		(3.54000000 0.23230224 0.00000000)
		(3.56000000 0.23230224 0.00000000)
		(3.58000000 0.23230224 0.00000000)
		(3.60000000 0.23230224 0.00000000)
		(3.62000000 0.23230224 0.00000000)
		(3.64000000 0.23230224 0.00000000)
		(3.66000000 0.23230224 0.00000000)
		(3.68000000 0.23230224 0.00000000)
		(3.70000000 0.23230224 0.00000000)
		(3.72000000 0.23230224 0.00000000)
		(3.74000000 0.23230224 0.00000000)
		(3.76000000 0.23230224 0.00000000)
		(3.78000000 0.23230224 0.00000000)
		(3.80000000 0.23230224 0.00000000)
		(3.82000000 0.23230224 0.00000000)
		(3.84000000 0.23230224 0.00000000)
		(3.86000000 0.23230224 0.00000000)
		(3.88000000 0.23230224 0.00000000)
		(3.90000000 0.23230224 0.00000000)
		(3.92000000 0.23230224 0.00000000)
		(3.94000000 0.23230224 0.00000000)
		(3.96000000 0.23230224 0.00000000)
		(3.98000000 0.23230224 0.00000000)
		(4.00000000 0.23230224 0.00000000)
	)
	polyLine 4 5
	(
		(-1.00000000 -0.24967701 0.10000000)
		(-0.98000000 -0.24967701 0.10000000)
		(-0.96000000 -0.24967701 0.10000000)
		(-0.94000000 -0.24967701 0.10000000)
		(-0.92000000 -0.24967701 0.10000000)
		(-0.90000000 -0.24967701 0.10000000)
		(-0.88000000 -0.24967701 0.10000000)
		(-0.86000000 -0.24967701 0.10000000)
		(-0.84000000 -0.24967701 0.10000000)
		(-0.82000000 -0.24967701 0.10000000)
		(-0.80000000 -0.24967701 0.10000000)
		(-0.78000000 -0.24967701 0.10000000)
		(-0.76000000 -0.24967701 0.10000000)
		(-0.74000000 -0.24967701 0.10000000)
		(-0.72000000 -0.24967701 0.10000000)
		(-0.70000000 -0.24967701 0.10000000)
		(-0.68000000 -0.24967701 0.10000000)
		(-0.66000000 -0.24967701 0.10000000)
		(-0.64000000 -0.24967701 0.10000000)
		(-0.62000000 -0.24967701 0.10000000)
		(-0.60000000 -0.24967701 0.10000000)
		(-0.58000000 -0.24967701 0.10000000)
		(-0.56000000 -0.24967701 0.10000000)
		(-0.54000000 -0.24967701 0.10000000)
		(-0.52000000 -0.24967701 0.10000000)
		(-0.50000000 -0.24967701 0.10000000)
		(-0.48000000 -0.24967701 0.10000000)
		(-0.46000000 -0.24967701 0.10000000)
		(-0.44000000 -0.24967701 0.10000000)
		(-0.42000000 -0.24967701 0.10000000)
		(-0.40000000 -0.24967701 0.10000000)
		(-0.38000000 -0.24967701 0.10000000)
		(-0.36000000 -0.24967701 0.10000000)
		(-0.34000000 -0.24967701 0.10000000)
		(-0.32000000 -0.24967701 0.10000000)
		(-0.30000000 -0.24967701 0.10000000)
		(-0.28000000 -0.24967701 0.10000000)
		(-0.26000000 -0.24967701 0.10000000)
		(-0.24000000 -0.24967701 0.10000000)
		(-0.22000000 -0.24967701 0.10000000)
		(-0.20000000 -0.24967701 0.10000000)
		(-0.18000000 -0.24967701 0.10000000)
		(-0.16000000 -0.24967701 0.10000000)
		(-0.14000000 -0.24967701 0.10000000)
		(-0.12000000 -0.24967701 0.10000000)
		(-0.10000000 -0.24967701 0.10000000)
		(-0.08162011 -0.24948296 0.10000000)
		(-0.06324022 -0.24890083 0.10000000)
		(-0.04486034 -0.24793060 0.10000000)
		(-0.02648045 -0.24657229 0.10000000)
		(-0.00810056 -0.24482588 0.10000000)
		(0.01027933 -0.24269139 0.10000000)
		(0.02865922 -0.24016880 0.10000000)
		(0.04703911 -0.23725813 0.10000000)
		(0.06541899 -0.23395937 0.10000000)
		(0.08379888 -0.23027251 0.10000000)
		(0.10055866 -0.22057403 0.10000000)
		(0.11731844 -0.20908404 0.10000000)
		(0.13407821 -0.19589588 0.10000000)
		(0.15083799 -0.18111664 0.10000000)
		(0.16759777 -0.16486638 0.10000000)
		(0.18435754 -0.14727707 0.10000000)
		(0.20111732 -0.12849157 0.10000000)
		(0.21787709 -0.10866247 0.10000000)
		(0.23463687 -0.08795081 0.10000000)
		(0.25139665 -0.06652481 0.10000000)
		(0.26815642 -0.04455849 0.10000000)
		(0.28491620 -0.02223028 0.10000000)
		(0.30167598 0.00027849 0.10000000)
		(0.31843575 0.02278500 0.10000000)
		(0.33519553 0.04510645 0.10000000)
		(0.35195531 0.06706155 0.10000000)
		(0.36871508 0.08847197 0.10000000)
		(0.38547486 0.10916382 0.10000000)
		(0.40223464 0.12896904 0.10000000)
		(0.41899441 0.14772678 0.10000000)
		(0.43575419 0.16528468 0.10000000)
		(0.45251397 0.18150013 0.10000000)
		(0.46927374 0.19624144 0.10000000)
		(0.48603352 0.20938888 0.10000000)
		(0.50279330 0.22083566 0.10000000)
		(0.51955307 0.23048881 0.10000000)
		(0.53631285 0.23826993 0.10000000)
		(0.55307263 0.24411582 0.10000000)
		(0.56983240 0.24797900 0.10000000)
		(0.58659218 0.24982809 0.10000000)
		(0.60335196 0.24964808 0.10000000)
		(0.62011173 0.24744043 0.10000000)
		(0.63687151 0.24322306 0.10000000)
		(0.65363128 0.23703024 0.10000000)
		(0.67039106 0.22891226 0.10000000)
		(0.68715084 0.21893505 0.10000000)
		(0.70391061 0.20717964 0.10000000)
		(0.72067039 0.19374153 0.10000000)
		(0.73743017 0.17872984 0.10000000)
		(0.75418994 0.16226651 0.10000000)
		(0.77094972 0.14448525 0.10000000)
		(0.78770950 0.12553049 0.10000000)
		(0.80446927 0.10555616 0.10000000)
		(0.82122905 0.08472450 0.10000000)
		(0.83798883 0.06320471 0.10000000)
		(0.85474860 0.04117158 0.10000000)
		(0.87150838 0.01880404 0.10000000)
		(0.88826816 -0.00371622 0.10000000)
		(0.90502793 -0.02620629 0.10000000)
		(0.92178771 -0.04848352 0.10000000)
		(0.93854749 -0.07036697 0.10000000)
		(0.95530726 -0.09167889 0.10000000)
		(0.97206704 -0.11224620 0.10000000)
		(0.98882682 -0.13190184 0.10000000)
		(1.00558659 -0.15048618 0.10000000)
		(1.02234637 -0.16784827 0.10000000)
		(1.03910615 -0.18384709 0.10000000)
		(1.05586592 -0.19835271 0.10000000)
		(1.07262570 -0.21124730 0.10000000)
		(1.08938547 -0.22242614 0.10000000)
		(1.10614525 -0.23179844 0.10000000)
		(1.12290503 -0.23928807 0.10000000)
		(1.13966480 -0.24483420 0.10000000)
		(1.15642458 -0.24839179 0.10000000)
		(1.17318436 -0.24993194 0.10000000)
		(1.18994413 -0.24944214 0.10000000)
		(1.20670391 -0.24692637 0.10000000)
		(1.22346369 -0.24240506 0.10000000)
		(1.24022346 -0.23591494 0.10000000)
		(1.25698324 -0.22750871 0.10000000)
		(1.27374302 -0.21725466 0.10000000)
		(1.29050279 -0.20523607 0.10000000)
		(1.30726257 -0.19155054 0.10000000)
		(1.32402235 -0.17630925 0.10000000)
		(1.34078212 -0.15963597 0.10000000)
		(1.35754190 -0.14166612 0.10000000)
		(1.37430168 -0.12254566 0.10000000)
		(1.39106145 -0.10242989 0.10000000)
		(1.40782123 -0.08148218 0.10000000)
		(1.42458101 -0.05987267 0.10000000)
		(1.44134078 -0.03777687 0.10000000)
		(1.45810056 -0.01537426 0.10000000)
		(1.47486034 0.00715323 0.10000000)
		(1.49162011 0.02962262 0.10000000)
		(1.50837989 0.05185142 0.10000000)
		(1.52513966 0.07365907 0.10000000)
		(1.54189944 0.09486847 0.10000000)
		(1.55865922 0.11530735 0.10000000)
		(1.57541899 0.13480970 0.10000000)
		(1.59217877 0.15321712 0.10000000)
		(1.60893855 0.17038012 0.10000000)
		(1.62569832 0.18615928 0.10000000)
		(1.64245810 0.20042646 0.10000000)
		(1.65921788 0.21306578 0.10000000)
		(1.67597765 0.22397457 0.10000000)
		(1.69273743 0.23306424 0.10000000)
		(1.70949721 0.24026097 0.10000000)
		(1.72625698 0.24550629 0.10000000)
		(1.74301676 0.24875761 0.10000000)
		(1.75977654 0.24998852 0.10000000)
		(1.77653631 0.24918902 0.10000000)
		(1.79329609 0.24636561 0.10000000)
		(1.81005587 0.24154121 0.10000000)
		(1.82681564 0.23475502 0.10000000)
		(1.84357542 0.22606214 0.10000000)
		(1.86033520 0.21553319 0.10000000)
		(1.87709497 0.20325368 0.10000000)
		(1.89385475 0.18932334 0.10000000)
		(1.91061453 0.17385531 0.10000000)
		(1.92737430 0.15697523 0.10000000)
		(1.94413408 0.13882020 0.10000000)
		(1.96089385 0.11953767 0.10000000)
		(1.97765363 0.09928425 0.10000000)
		(1.99441341 0.07822445 0.10000000)
		(2.01117318 0.05652930 0.10000000)
		(2.02793296 0.03437503 0.10000000)
		(2.04469274 0.01194156 0.10000000)
		(2.06145251 -0.01058890 0.10000000)
		(2.07821229 -0.03303335 0.10000000)
		(2.09497207 -0.05520951 0.10000000)
		(2.11173184 -0.07693726 0.10000000)
		(2.12849162 -0.09804012 0.10000000)
		(2.14525140 -0.11834670 0.10000000)
		(2.16201117 -0.13769206 0.10000000)
		(2.17877095 -0.15591909 0.10000000)
		(2.19553073 -0.17287975 0.10000000)
		(2.21229050 -0.18843627 0.10000000)
		(2.22905028 -0.20246232 0.10000000)
		(2.24581006 -0.21484397 0.10000000)
		(2.26256983 -0.22548065 0.10000000)
		(2.27932961 -0.23428597 0.10000000)
		(2.29608939 -0.24118843 0.10000000)
		(2.31284916 -0.24613195 0.10000000)
		(2.32960894 -0.24907639 0.10000000)
		(2.34636872 -0.24999783 0.10000000)
		(2.36312849 -0.24888878 0.10000000)
		(2.37988827 -0.24575826 0.10000000)
		(2.39664804 -0.24063169 0.10000000)
		(2.41340782 -0.23355071 0.10000000)
		(2.43016760 -0.22457283 0.10000000)
		(2.44692737 -0.21377097 0.10000000)
		(2.46368715 -0.20123285 0.10000000)
		(2.48044693 -0.18706033 0.10000000)
		(2.49720670 -0.17136850 0.10000000)
		(2.51396648 -0.15428481 0.10000000)
		(2.53072626 -0.13594802 0.10000000)
		(2.54748603 -0.11650706 0.10000000)
		(2.56424581 -0.09611984 0.10000000)
		(2.58100559 -0.07495192 0.10000000)
		(2.59776536 -0.05317525 0.10000000)
		(2.61452514 -0.03096668 0.10000000)
		(2.63128492 -0.00850661 0.10000000)
		(2.64804469 0.01402256 0.10000000)
		(2.66480447 0.03643784 0.10000000)
		(2.68156425 0.05855716 0.10000000)
		(2.69832402 0.08020089 0.10000000)
		(2.71508380 0.10119322 0.10000000)
		(2.73184358 0.12136366 0.10000000)
		(2.74860335 0.14054839 0.10000000)
		(2.76536313 0.15859158 0.10000000)
		(2.78212291 0.17534669 0.10000000)
		(2.79888268 0.19067763 0.10000000)
		(2.81564246 0.20445989 0.10000000)
		(2.83240223 0.21658153 0.10000000)
		(2.84916201 0.22694408 0.10000000)
		(2.86592179 0.23546340 0.10000000)
		(2.88268156 0.24207029 0.10000000)
		(2.89944134 0.24671107 0.10000000)
		(2.91620112 0.24934807 0.10000000)
		(2.93296089 0.24995986 0.10000000)
		(2.95166480 0.24660492 0.10000000)
		(2.97036872 0.24360312 0.10000000)
		(2.98907263 0.24095447 0.10000000)
		(3.00777654 0.23865898 0.10000000)
		(3.02648045 0.23671664 0.10000000)
		(3.04518436 0.23512746 0.10000000)
		(3.06388827 0.23389142 0.10000000)
		(3.08259218 0.23300854 0.10000000)
		(3.10129609 0.23247881 0.10000000)
		(3.12000000 0.23230224 0.10000000)
		(3.14000000 0.23230224 0.10000000)
		(3.16000000 0.23230224 0.10000000)
		(3.18000000 0.23230224 0.10000000)
		(3.20000000 0.23230224 0.10000000)
		(3.22000000 0.23230224 0.10000000)
		(3.24000000 0.23230224 0.10000000)
		(3.26000000 0.23230224 0.10000000)
		(3.28000000 0.23230224 0.10000000)
		(3.30000000 0.23230224 0.10000000)
		(3.32000000 0.23230224 0.10000000)
		(3.34000000 0.23230224 0.10000000)
		(3.36000000 0.23230224 0.10000000)
		(3.38000000 0.23230224 0.10000000)
		(3.40000000 0.23230224 0.10000000)
		(3.42000000 0.23230224 0.10000000)
		(3.44000000 0.23230224 0.10000000)
		(3.46000000 0.23230224 0.10000000)
		(3.48000000 0.23230224 0.10000000)
		(3.50000000 0.23230224 0.10000000)
		(3.52000000 0.23230224 0.10000000)
		(3.54000000 0.23230224 0.10000000)
		(3.56000000 0.23230224 0.10000000)
		(3.58000000 0.23230224 0.10000000)
		(3.60000000 0.23230224 0.10000000)
		(3.62000000 0.23230224 0.10000000)
		(3.64000000 0.23230224 0.10000000)
		(3.66000000 0.23230224 0.10000000)
		(3.68000000 0.23230224 0.10000000)
		(3.70000000 0.23230224 0.10000000)
		(3.72000000 0.23230224 0.10000000)
		(3.74000000 0.23230224 0.10000000)
		(3.76000000 0.23230224 0.10000000)
		(3.78000000 0.23230224 0.10000000)
		(3.80000000 0.23230224 0.10000000)
		(3.82000000 0.23230224 0.10000000)
		(3.84000000 0.23230224 0.10000000)
		(3.86000000 0.23230224 0.10000000)
		(3.88000000 0.23230224 0.10000000)
		(3.90000000 0.23230224 0.10000000)
		(3.92000000 0.23230224 0.10000000)
		(3.94000000 0.23230224 0.10000000)
		(3.96000000 0.23230224 0.10000000)
		(3.98000000 0.23230224 0.10000000)
		(4.00000000 0.23230224 0.10000000)
	)
	polyLine 3 2
	(
		(-1.00000000 0.25032299 0.00000000)
		(-0.98000000 0.24744120 0.00000000)
		(-0.96000000 0.24455940 0.00000000)
		(-0.94000000 0.24167760 0.00000000)
		(-0.92000000 0.23879580 0.00000000)
		(-0.90000000 0.23591401 0.00000000)
		(-0.88000000 0.23303221 0.00000000)
		(-0.86000000 0.23015041 0.00000000)
		(-0.84000000 0.22726861 0.00000000)
		(-0.82000000 0.22438682 0.00000000)
		(-0.80000000 0.22150502 0.00000000)
		(-0.78000000 0.21862322 0.00000000)
		(-0.76000000 0.21574142 0.00000000)
		(-0.74000000 0.21285963 0.00000000)
		(-0.72000000 0.20997783 0.00000000)
		(-0.70000000 0.20709603 0.00000000)
		(-0.68000000 0.20421423 0.00000000)
		(-0.66000000 0.20133244 0.00000000)
		(-0.64000000 0.19845064 0.00000000)
		(-0.62000000 0.19556884 0.00000000)
		(-0.60000000 0.19268704 0.00000000)
		(-0.58000000 0.18980525 0.00000000)
		(-0.56000000 0.18692345 0.00000000)
		(-0.54000000 0.18404165 0.00000000)
		(-0.52000000 0.18115985 0.00000000)
		(-0.50000000 0.17827806 0.00000000)
		(-0.48000000 0.17539626 0.00000000)
		(-0.46000000 0.17251446 0.00000000)
		(-0.44000000 0.16963266 0.00000000)
		(-0.42000000 0.16675087 0.00000000)
		(-0.40000000 0.16386907 0.00000000)
		(-0.38000000 0.16098727 0.00000000)
		(-0.36000000 0.15810547 0.00000000)
		(-0.34000000 0.15522368 0.00000000)
		(-0.32000000 0.15234188 0.00000000)
		(-0.30000000 0.14946008 0.00000000)
		(-0.28000000 0.14657828 0.00000000)
		(-0.26000000 0.14369649 0.00000000)
		(-0.24000000 0.14081469 0.00000000)
		(-0.22000000 0.13793289 0.00000000)
		(-0.20000000 0.13505109 0.00000000)
		(-0.18000000 0.13216930 0.00000000)
		(-0.16000000 0.12928750 0.00000000)
		(-0.14000000 0.12640570 0.00000000)
		(-0.12000000 0.12352390 0.00000000)
		(-0.10000000 0.12064211 0.00000000)
		(-0.08162011 0.11842475 0.00000000)
		(-0.06324022 0.11711906 0.00000000)
		(-0.04486034 0.11672505 0.00000000)
		(-0.02648045 0.11724272 0.00000000)
		(-0.00810056 0.11867206 0.00000000)
		(0.01027933 0.12101307 0.00000000)
		(0.02865922 0.12426576 0.00000000)
		(0.04703911 0.12843012 0.00000000)
		(0.06541899 0.13350616 0.00000000)
		(0.08379888 0.13949387 0.00000000)
		(0.10055866 0.15467746 0.00000000)
		(0.11731844 0.17266575 0.00000000)
		(0.13407821 0.19331266 0.00000000)
		(0.15083799 0.21645049 0.00000000)
		(0.16759777 0.24189130 0.00000000)
		(0.18435754 0.26942847 0.00000000)
		(0.20111732 0.29883835 0.00000000)
		(0.21787709 0.32988206 0.00000000)
		(0.23463687 0.36230747 0.00000000)
		(0.25139665 0.39585122 0.00000000)
		(0.26815642 0.43024087 0.00000000)
		(0.28491620 0.46519710 0.00000000)
		(0.30167598 0.50043600 0.00000000)
		(0.31843575 0.53567136 0.00000000)
		(0.33519553 0.57061700 0.00000000)
		(0.35195531 0.60498908 0.00000000)
		(0.36871508 0.63850844 0.00000000)
		(0.38547486 0.67090284 0.00000000)
		(0.40223464 0.70190916 0.00000000)
		(0.41899441 0.73127558 0.00000000)
		(0.43575419 0.75876357 0.00000000)
		(0.45251397 0.78414989 0.00000000)
		(0.46927374 0.80722834 0.00000000)
		(0.48603352 0.82781148 0.00000000)
		(0.50279330 0.84573213 0.00000000)
		(0.51955307 0.86084475 0.00000000)
		(0.53631285 0.87302658 0.00000000)
		(0.55307263 0.88217869 0.00000000)
		(0.56983240 0.88822675 0.00000000)
		(0.58659218 0.89112162 0.00000000)
		(0.60335196 0.89083980 0.00000000)
		(0.62011173 0.88738358 0.00000000)
		(0.63687151 0.88078103 0.00000000)
		(0.65363128 0.87108578 0.00000000)
		(0.67039106 0.85837656 0.00000000)
		(0.68715084 0.84275661 0.00000000)
		(0.70391061 0.82435279 0.00000000)
		(0.72067039 0.80331457 0.00000000)
		(0.73743017 0.77981283 0.00000000)
		(0.75418994 0.75403845 0.00000000)
		(0.77094972 0.72620077 0.00000000)
		(0.78770950 0.69652588 0.00000000)
		(0.80446927 0.66525482 0.00000000)
		(0.82122905 0.63264155 0.00000000)
		(0.83798883 0.59895096 0.00000000)
		(0.85474860 0.56445670 0.00000000)
		(0.87150838 0.52943892 0.00000000)
		(0.88826816 0.49418203 0.00000000)
		(0.90502793 0.45897240 0.00000000)
		(0.92178771 0.42409599 0.00000000)
		(0.93854749 0.38983608 0.00000000)
		(0.95530726 0.35647092 0.00000000)
		(0.97206704 0.32427151 0.00000000)
		(0.98882682 0.29349936 0.00000000)
		(1.00558659 0.26440441 0.00000000)
		(1.02234637 0.23722296 0.00000000)
		(1.03910615 0.21217580 0.00000000)
		(1.05586592 0.18946634 0.00000000)
		(1.07262570 0.16927904 0.00000000)
		(1.08938547 0.15177786 0.00000000)
		(1.10614525 0.13710493 0.00000000)
		(1.12290503 0.12537945 0.00000000)
		(1.13966480 0.11669663 0.00000000)
		(1.15642458 0.11112700 0.00000000)
		(1.17318436 0.10871581 0.00000000)
		(1.18994413 0.10948262 0.00000000)
		(1.20670391 0.11342122 0.00000000)
		(1.22346369 0.12049961 0.00000000)
		(1.24022346 0.13066030 0.00000000)
		(1.25698324 0.14382078 0.00000000)
		(1.27374302 0.15987414 0.00000000)
		(1.29050279 0.17869001 0.00000000)
		(1.30726257 0.20011556 0.00000000)
		(1.32402235 0.22397677 0.00000000)
		(1.34078212 0.25007984 0.00000000)
		(1.35754190 0.27821276 0.00000000)
		(1.37430168 0.30814704 0.00000000)
		(1.39106145 0.33963956 0.00000000)
		(1.40782123 0.37243452 0.00000000)
		(1.42458101 0.40626556 0.00000000)
		(1.44134078 0.44085792 0.00000000)
		(1.45810056 0.47593063 0.00000000)
		(1.47486034 0.51119884 0.00000000)
		(1.49162011 0.54637608 0.00000000)
		(1.50837989 0.58117666 0.00000000)
		(1.52513966 0.61531792 0.00000000)
		(1.54189944 0.64852257 0.00000000)
		(1.55865922 0.68052092 0.00000000)
		(1.57541899 0.71105308 0.00000000)
		(1.59217877 0.73987106 0.00000000)
		(1.60893855 0.76674081 0.00000000)
		(1.62569832 0.79144409 0.00000000)
		(1.64245810 0.81378026 0.00000000)
		(1.65921788 0.83356790 0.00000000)
		(1.67597765 0.85064631 0.00000000)
		(1.69273743 0.86487676 0.00000000)
		(1.70949721 0.87614368 0.00000000)
		(1.72625698 0.88435557 0.00000000)
		(1.74301676 0.88944571 0.00000000)
		(1.75977654 0.89137278 0.00000000)
		(1.77653631 0.89012111 0.00000000)
		(1.79329609 0.88570088 0.00000000)
		(1.81005587 0.87814799 0.00000000)
		(1.82681564 0.86752377 0.00000000)
		(1.84357542 0.85391453 0.00000000)
		(1.86033520 0.83743079 0.00000000)
		(1.87709497 0.81820644 0.00000000)
		(1.89385475 0.79639761 0.00000000)
		(1.91061453 0.77218144 0.00000000)
		(1.92737430 0.74575461 0.00000000)
		(1.94413408 0.71733176 0.00000000)
		(1.96089385 0.68714375 0.00000000)
		(1.97765363 0.65543575 0.00000000)
		(1.99441341 0.62246530 0.00000000)
		(2.01117318 0.58850018 0.00000000)
		(2.02793296 0.55381627 0.00000000)
		(2.04469274 0.51869526 0.00000000)
		(2.06145251 0.48342241 0.00000000)
		(2.07821229 0.44828421 0.00000000)
		(2.09497207 0.41356603 0.00000000)
		(2.11173184 0.37954988 0.00000000)
		(2.12849162 0.34651202 0.00000000)
		(2.14525140 0.31472079 0.00000000)
		(2.16201117 0.28443440 0.00000000)
		(2.17877095 0.25589884 0.00000000)
		(2.19553073 0.22934586 0.00000000)
		(2.21229050 0.20499114 0.00000000)
		(2.22905028 0.18303248 0.00000000)
		(2.24581006 0.16364824 0.00000000)
		(2.26256983 0.14699584 0.00000000)
		(2.27932961 0.13321054 0.00000000)
		(2.29608939 0.12240432 0.00000000)
		(2.31284916 0.11466492 0.00000000)
		(2.32960894 0.11005522 0.00000000)
		(2.34636872 0.10861265 0.00000000)
		(2.36312849 0.11034893 0.00000000)
		(2.37988827 0.11524996 0.00000000)
		(2.39664804 0.12327592 0.00000000)
		(2.41340782 0.13436165 0.00000000)
		(2.43016760 0.14841709 0.00000000)
		(2.44692737 0.16532808 0.00000000)
		(2.46368715 0.18495729 0.00000000)
		(2.48044693 0.20714527 0.00000000)
		(2.49720670 0.23171182 0.00000000)
		(2.51396648 0.25845741 0.00000000)