/*--------------------------------*- C++ -*----------------------------------*\\
/*--------------------------------*- C++ -*----------------------------------*\\
| =========                 |                                                 |
| \\\\      /  F ield         | OpenFOAM: The Open Source CFD Toolbox           |
|  \\\\    /   O peration     | Version:  v2012                                 |
|   \\\\  /    A nd           | Website:  www.openfoam.com                      |
|    \\\\/     M anipulation  |                                                 |
\\*---------------------------------------------------------------------------*/
FoamFile
{
    version     2.0;
    format      ascii;
    class       dictionary;
    object      blockMeshDict;
}
// * * * * * * * * * * * * * * * * * * * * * * * * * * * * * * * * * * * * * //

scale   0.01;

xmin -1;
xmax 5;
ymin 0;
ymax 0.5;
zmin 0;
zmax 0.1;

vertices
(
    (-1.00000000 -0.06527823 0.00000000)
    (4.00000000 0.07611324 0.00000000)
    (4.00000000 0.57611324 0.00000000)
    (-1.00000000 0.43472177 0.00000000)
    (-1.00000000 -0.06527823 0.10000000)
    (4.00000000 0.07611324 0.10000000)
    (4.00000000 0.57611324 0.10000000)
    (-1.00000000 0.43472177 0.10000000)
);

blocks
(
    hex (0 1 2 3 4 5 6 7) (200 20 1) simpleGrading (1 1 1)
);

edges
(
	polyLine 0 1
	(
		(-1.00000000 -0.06527823 0.00000000)
		(-0.98000000 -0.06527823 0.00000000)
		(-0.96000000 -0.06527823 0.00000000)
		(-0.94000000 -0.06527823 0.00000000)
		(-0.92000000 -0.06527823 0.00000000)
		(-0.90000000 -0.06527823 0.00000000)
		(-0.88000000 -0.06527823 0.00000000)
		(-0.86000000 -0.06527823 0.00000000)
		(-0.84000000 -0.06527823 0.00000000)
		(-0.82000000 -0.06527823 0.00000000)
		(-0.80000000 -0.06527823 0.00000000)
		(-0.78000000 -0.06527823 0.00000000)
		(-0.76000000 -0.06527823 0.00000000)
		(-0.74000000 -0.06527823 0.00000000)
		(-0.72000000 -0.06527823 0.00000000)
		(-0.70000000 -0.06527823 0.00000000)
		(-0.68000000 -0.06527823 0.00000000)
		(-0.66000000 -0.06527823 0.00000000)
		(-0.64000000 -0.06527823 0.00000000)
		(-0.62000000 -0.06527823 0.00000000)
		(-0.60000000 -0.06527823 0.00000000)
		(-0.58000000 -0.06527823 0.00000000)
		(-0.56000000 -0.06527823 0.00000000)
		(-0.54000000 -0.06527823 0.00000000)
		(-0.52000000 -0.06527823 0.00000000)
		(-0.50000000 -0.06527823 0.00000000)
		(-0.48000000 -0.06527823 0.00000000)
		(-0.46000000 -0.06527823 0.00000000)
		(-0.44000000 -0.06527823 0.00000000)
		(-0.42000000 -0.06527823 0.00000000)
		(-0.40000000 -0.06527823 0.00000000)
		(-0.38000000 -0.06527823 0.00000000)
		(-0.36000000 -0.06527823 0.00000000)
		(-0.34000000 -0.06527823 0.00000000)
		(-0.32000000 -0.06527823 0.00000000)
		(-0.30000000 -0.06527823 0.00000000)
		(-0.28000000 -0.06527823 0.00000000)
		(-0.26000000 -0.06527823 0.00000000)
		(-0.24000000 -0.06527823 0.00000000)
		(-0.22000000 -0.06527823 0.00000000)
		(-0.20000000 -0.06527823 0.00000000)
		(-0.18000000 -0.06527823 0.00000000)
		(-0.16000000 -0.06527823 0.00000000)
		(-0.14000000 -0.06527823 0.00000000)
		(-0.12000000 -0.06527823 0.00000000)
		(-0.10000000 -0.06527823 0.00000000)
		(-0.08162011 -0.06419428 0.00000000)
		(-0.06324022 -0.06094244 0.00000000)
		(-0.04486034 -0.05552270 0.00000000)
		(-0.02648045 -0.04793507 0.00000000)
		(-0.00810056 -0.03817954 0.00000000)
		(0.01027933 -0.02625612 0.00000000)
		(0.02865922 -0.01216480 0.00000000)
		(0.04703911 0.00409441 0.00000000)
		(0.06541899 0.02252152 0.00000000)
		(0.08379888 0.04311652 0.00000000)
		(0.10055866 0.06447167 0.00000000)
		(0.11731844 0.08533350 0.00000000)
		(0.13407821 0.10554240 0.00000000)
		(0.15083799 0.12494372 0.00000000)
		(0.16759777 0.14338902 0.00000000)
		(0.18435754 0.16073716 0.00000000)
		(0.20111732 0.17685539 0.00000000)
		(0.21787709 0.19162040 0.00000000)
		(0.23463687 0.20491919 0.00000000)
		(0.25139665 0.21665002 0.00000000)
		(0.26815642 0.22672312 0.00000000)
		(0.28491620 0.23506142 0.00000000)
		(0.30167598 0.24160111 0.00000000)
		(0.31843575 0.24629216 0.00000000)
		(0.33519553 0.24909868 0.00000000)
		(0.35195531 0.24999918 0.00000000)
		(0.36871508 0.24898678 0.00000000)
		(0.38547486 0.24606922 0.00000000)
		(0.40223464 0.24126884 0.00000000)
		(0.41899441 0.23462235 0.00000000)
		(0.43575419 0.22618062 0.00000000)
		(0.45251397 0.21600823 0.00000000)
		(0.46927374 0.20418303 0.00000000)
		(0.48603352 0.19079550 0.00000000)
		(0.50279330 0.17594807 0.00000000)
		(0.51955307 0.15975435 0.00000000)
		(0.53631285 0.14233824 0.00000000)
		(0.55307263 0.12383302 0.00000000)
		(0.56983240 0.10438027 0.00000000)
		(0.58659218 0.08412884 0.00000000)
		(0.60335196 0.06323369 0.00000000)
		(0.62011173 0.04185470 0.00000000)
		(0.63687151 0.02015545 0.00000000)
		(0.65363128 -0.00169802 0.00000000)
		(0.67039106 -0.02353850 0.00000000)
		(0.68715084 -0.04519887 0.00000000)
		(0.70391061 -0.06651339 0.00000000)
		(0.72067039 -0.08731898 0.00000000)
		(0.73743017 -0.10745644 0.00000000)
		(0.75418994 -0.12677168 0.00000000)
		(0.77094972 -0.14511691 0.00000000)
		(0.78770950 -0.16235175 0.00000000)
		(0.80446927 -0.17834434 0.00000000)
		(0.82122905 -0.19297231 0.00000000)
		(0.83798883 -0.20612372 0.00000000)
		(0.85474860 -0.21769795 0.00000000)
		(0.87150838 -0.22760643 0.00000000)
		(0.88826816 -0.23577335 0.00000000)
		(0.90502793 -0.24213622 0.00000000)
		(0.92178771 -0.24664636 0.00000000)
		(0.93854749 -0.24926924 0.00000000)
		(0.95530726 -0.24998481 0.00000000)
		(0.97206704 -0.24878759 0.00000000)
		(0.98882682 -0.24568673 0.00000000)
		(1.00558659 -0.24070597 0.00000000)
		(1.02234637 -0.23388342 0.00000000)
		(1.03910615 -0.22527127 0.00000000)
		(1.05586592 -0.21493543 0.00000000)
		(1.07262570 -0.20295499 0.00000000)
		(1.08938547 -0.18942160 0.00000000)
		(1.10614525 -0.17443884 0.00000000)
		(1.12290503 -0.15812133 0.00000000)
		(1.13966480 -0.14059393 0.00000000)
		(1.15642458 -0.12199076 0.00000000)
		(1.17318436 -0.10245416 0.00000000)
		(1.18994413 -0.08213362 0.00000000)
		(1.20670391 -0.06118463 0.00000000)
		(1.22346369 -0.03976747 0.00000000)
		(1.24022346 -0.01804602 0.00000000)
		(1.25698324 0.00381350 0.00000000)
		(1.27374302 0.02564385 0.00000000)
		(1.29050279 0.04727798 0.00000000)
		(1.30726257 0.06855036 0.00000000)
		(1.32402235 0.08929821 0.00000000)
		(1.34078212 0.10936279 0.00000000)
		(1.35754190 0.12859056 0.00000000)
		(1.37430168 0.14683440 0.00000000)
		(1.39106145 0.16395472 0.00000000)
		(1.40782123 0.17982052 0.00000000)
		(1.42458101 0.19431040 0.00000000)
		(1.44134078 0.20731349 0.00000000)
		(1.45810056 0.21873029 0.00000000)
		(1.47486034 0.22847345 0.00000000)
		(1.49162011 0.23646841 0.00000000)
		(1.50837989 0.24265400 0.00000000)
		(1.52513966 0.24698289 0.00000000)
		(1.54189944 0.24942196 0.00000000)
		(1.55865922 0.24995254 0.00000000)
		(1.57541899 0.24857058 0.00000000)
		(1.59217877 0.24528664 0.00000000)
		(1.60893855 0.24012587 0.00000000)
		(1.62569832 0.23312773 0.00000000)
		(1.64245810 0.22434579 0.00000000)
		(1.65921788 0.21384724 0.00000000)
		(1.67597765 0.20171241 0.00000000)
		(1.69273743 0.18803414 0.00000000)
		(1.70949721 0.17291711 0.00000000)
		(1.72625698 0.15647698 0.00000000)
		(1.74301676 0.13883955 0.00000000)
		(1.75977654 0.12013977 0.00000000)
		(1.77653631 0.10052072 0.00000000)
		(1.79329609 0.08013252 0.00000000)
		(1.81005587 0.05913118 0.00000000)
		(1.82681564 0.03767739 0.00000000)
		(1.84357542 0.01593530 0.00000000)
		(1.86033520 -0.00592872 0.00000000)
		(1.87709497 -0.02774737 0.00000000)
		(1.89385475 -0.04935371 0.00000000)
		(1.91061453 -0.07058241 0.00000000)
		(1.92737430 -0.09127104 0.00000000)
		(1.94413408 -0.11126130 0.00000000)
		(1.96089385 -0.13040023 0.00000000)
		(1.97765363 -0.14854139 0.00000000)
		(1.99441341 -0.16554595 0.00000000)
		(2.01117318 -0.18128383 0.00000000)
		(2.02793296 -0.19563458 0.00000000)
		(2.04469274 -0.20848841 0.00000000)
		(2.06145251 -0.21974697 0.00000000)
		(2.07821229 -0.22932410 0.00000000)
		(2.09497207 -0.23714652 0.00000000)
		(2.11173184 -0.24315439 0.00000000)
		(2.12849162 -0.24730173 0.00000000)
		(2.14525140 -0.24955681 0.00000000)
		(2.16201117 -0.24990237 0.00000000)
		(2.17877095 -0.24833577 0.00000000)
		(2.19553073 -0.24486899 0.00000000)
		(2.21229050 -0.23952857 0.00000000)
		(2.22905028 -0.23235536 0.00000000)
		(2.24581006 -0.22340425 0.00000000)
		(2.26256983 -0.21274374 0.00000000)
		(2.27932961 -0.20045538 0.00000000)
		(2.29608939 -0.18663322 0.00000000)
		(2.31284916 -0.17138301 0.00000000)
		(2.32960894 -0.15482144 0.00000000)
		(2.34636872 -0.13707523 0.00000000)
		(2.36312849 -0.11828017 0.00000000)
		(2.37988827 -0.09858007 0.00000000)
		(2.39664804 -0.07812568 0.00000000)
		(2.41340782 -0.05707350 0.00000000)
		(2.43016760 -0.03558461 0.00000000)
		(2.44692737 -0.01382344 0.00000000)
		(2.46368715 0.00804350 0.00000000)
		(2.48044693 0.02984890 0.00000000)
		(2.49720670 0.05142590 0.00000000)
		(2.51396648 0.07260941 0.00000000)
		(2.53072626 0.09323734 0.00000000)
		(2.54748603 0.11315185 0.00000000)
		(2.56424581 0.13220057 0.00000000)
		(2.58100559 0.15023773 0.00000000)
		(2.59776536 0.16712533 0.00000000)
		(2.61452514 0.18273415 0.00000000)
		(2.63128492 0.19694475 0.00000000)
		(2.64804469 0.20964841 0.00000000)
		(2.66480447 0.22074791 0.00000000)
		(2.68156425 0.23015833 0.00000000)
		(2.69832402 0.23780766 0.00000000)
		(2.71508380 0.24363737 0.00000000)
		(2.73184358 0.24760286 0.00000000)
		(2.74860335 0.24967379 0.00000000)
		(2.76536313 0.24983430 0.00000000)
		(2.78212291 0.24808317 0.00000000)
		(2.79888268 0.24443380 0.00000000)
		(2.81564246 0.23891411 0.00000000)
		(2.83240223 0.23156634 0.00000000)
		(2.84916201 0.22244671 0.00000000)
		(2.86592179 0.21162499 0.00000000)
		(2.88268156 0.19918400 0.00000000)
		(2.89944134 0.18521893 0.00000000)
		(2.91620112 0.16983663 0.00000000)
		(2.93296089 0.15315480 0.00000000)
		(2.95166480 0.13851690 0.00000000)
		(2.97036872 0.12541984 0.00000000)
		(2.98907263 0.11386361 0.00000000)
		(3.00777654 0.10384820 0.00000000)
		(3.02648045 0.09537363 0.00000000)
		(3.04518436 0.08843989 0.00000000)
		(3.06388827 0.08304698 0.00000000)
		(3.08259218 0.07919490 0.00000000)
		(3.10129609 0.07688366 0.00000000)
		(3.12000000 0.07611324 0.00000000)
		(3.14000000 0.07611324 0.00000000)
		(3.16000000 0.07611324 0.00000000)
		(3.18000000 0.07611324 0.00000000)
		(3.20000000 0.07611324 0.00000000)
		(3.22000000 0.07611324 0.00000000)
		(3.24000000 0.07611324 0.00000000)
		(3.26000000 0.07611324 0.00000000)
		(3.28000000 0.07611324 0.00000000)
		(3.30000000 0.07611324 0.00000000)
		(3.32000000 0.07611324 0.00000000)
		(3.34000000 0.07611324 0.00000000)
		(3.36000000 0.07611324 0.00000000)
		(3.38000000 0.07611324 0.00000000)
		(3.40000000 0.07611324 0.00000000)
		(3.42000000 0.07611324 0.00000000)
		(3.44000000 0.07611324 0.00000000)
		(3.46000000 0.07611324 0.00000000)
		(3.48000000 0.07611324 0.00000000)
		(3.50000000 0.07611324 0.00000000)
		(3.52000000 0.07611324 0.00000000)
		(3.54000000 0.07611324 0.00000000)
		(3.56000000 0.07611324 0.00000000)
		(3.58000000 0.07611324 0.00000000)
		(3.60000000 0.07611324 0.00000000)
		(3.62000000 0.07611324 0.00000000)
		(3.64000000 0.07611324 0.00000000)
		(3.66000000 0.07611324 0.00000000)
		(3.68000000 0.07611324 0.00000000)
		(3.70000000 0.07611324 0.00000000)
		(3.72000000 0.07611324 0.00000000)
		(3.74000000 0.07611324 0.00000000)
		(3.76000000 0.07611324 0.00000000)
		(3.78000000 0.07611324 0.00000000)
		(3.80000000 0.07611324 0.00000000)
		(3.82000000 0.07611324 0.00000000)
		(3.84000000 0.07611324 0.00000000)
		(3.86000000 0.07611324 0.00000000)
		(3.88000000 0.07611324 0.00000000)
		(3.90000000 0.07611324 0.00000000)
		(3.92000000 0.07611324 0.00000000)
		(3.94000000 0.07611324 0.00000000)
		(3.96000000 0.07611324 0.00000000)
		(3.98000000 0.07611324 0.00000000)
		(4.00000000 0.07611324 0.00000000)
	)
	polyLine 4 5
	(
		(-1.00000000 -0.06527823 0.10000000)
		(-0.98000000 -0.06527823 0.10000000)
		(-0.96000000 -0.06527823 0.10000000)
		(-0.94000000 -0.06527823 0.10000000)
		(-0.92000000 -0.06527823 0.10000000)
		(-0.90000000 -0.06527823 0.10000000)
		(-0.88000000 -0.06527823 0.10000000)
		(-0.86000000 -0.06527823 0.10000000)
		(-0.84000000 -0.06527823 0.10000000)
		(-0.82000000 -0.06527823 0.10000000)
		(-0.80000000 -0.06527823 0.10000000)
		(-0.78000000 -0.06527823 0.10000000)
		(-0.76000000 -0.06527823 0.10000000)
		(-0.74000000 -0.06527823 0.10000000)
		(-0.72000000 -0.06527823 0.10000000)
		(-0.70000000 -0.06527823 0.10000000)
		(-0.68000000 -0.06527823 0.10000000)
		(-0.66000000 -0.06527823 0.10000000)
		(-0.64000000 -0.06527823 0.10000000)
		(-0.62000000 -0.06527823 0.10000000)
		(-0.60000000 -0.06527823 0.10000000)
		(-0.58000000 -0.06527823 0.10000000)
		(-0.56000000 -0.06527823 0.10000000)
		(-0.54000000 -0.06527823 0.10000000)
		(-0.52000000 -0.06527823 0.10000000)
		(-0.50000000 -0.06527823 0.10000000)
		(-0.48000000 -0.06527823 0.10000000)
		(-0.46000000 -0.06527823 0.10000000)
		(-0.44000000 -0.06527823 0.10000000)
		(-0.42000000 -0.06527823 0.10000000)
		(-0.40000000 -0.06527823 0.10000000)
		(-0.38000000 -0.06527823 0.10000000)
		(-0.36000000 -0.06527823 0.10000000)
		(-0.34000000 -0.06527823 0.10000000)
		(-0.32000000 -0.06527823 0.10000000)
		(-0.30000000 -0.06527823 0.10000000)
		(-0.28000000 -0.06527823 0.10000000)
		(-0.26000000 -0.06527823 0.10000000)
		(-0.24000000 -0.06527823 0.10000000)
		(-0.22000000 -0.06527823 0.10000000)
		(-0.20000000 -0.06527823 0.10000000)
		(-0.18000000 -0.06527823 0.10000000)
		(-0.16000000 -0.06527823 0.10000000)
		(-0.14000000 -0.06527823 0.10000000)
		(-0.12000000 -0.06527823 0.10000000)
		(-0.10000000 -0.06527823 0.10000000)
		(-0.08162011 -0.06419428 0.10000000)
		(-0.06324022 -0.06094244 0.10000000)
		(-0.04486034 -0.05552270 0.10000000)
		(-0.02648045 -0.04793507 0.10000000)
		(-0.00810056 -0.03817954 0.10000000)
		(0.01027933 -0.02625612 0.10000000)
		(0.02865922 -0.01216480 0.10000000)
		(0.04703911 0.00409441 0.10000000)
		(0.06541899 0.02252152 0.10000000)
		(0.08379888 0.04311652 0.10000000)
		(0.10055866 0.06447167 0.10000000)
		(0.11731844 0.08533350 0.10000000)
		(0.13407821 0.10554240 0.10000000)
		(0.15083799 0.12494372 0.10000000)
		(0.16759777 0.14338902 0.10000000)
		(0.18435754 0.16073716 0.10000000)
		(0.20111732 0.17685539 0.10000000)
		(0.21787709 0.19162040 0.10000000)
		(0.23463687 0.20491919 0.10000000)
		(0.25139665 0.21665002 0.10000000)
		(0.26815642 0.22672312 0.10000000)
		(0.28491620 0.23506142 0.10000000)
		(0.30167598 0.24160111 0.10000000)
		(0.31843575 0.24629216 0.10000000)
		(0.33519553 0.24909868 0.10000000)
		(0.35195531 0.24999918 0.10000000)
		(0.36871508 0.24898678 0.10000000)
		(0.38547486 0.24606922 0.10000000)
		(0.40223464 0.24126884 0.10000000)
		(0.41899441 0.23462235 0.10000000)
		(0.43575419 0.22618062 0.10000000)
		(0.45251397 0.21600823 0.10000000)
		(0.46927374 0.20418303 0.10000000)
		(0.48603352 0.19079550 0.10000000)
		(0.50279330 0.17594807 0.10000000)
		(0.51955307 0.15975435 0.10000000)
		(0.53631285 0.14233824 0.10000000)
		(0.55307263 0.12383302 0.10000000)
		(0.56983240 0.10438027 0.10000000)
		(0.58659218 0.08412884 0.10000000)
		(0.60335196 0.06323369 0.10000000)
		(0.62011173 0.04185470 0.10000000)
		(0.63687151 0.02015545 0.10000000)
		(0.65363128 -0.00169802 0.10000000)
		(0.67039106 -0.02353850 0.10000000)
		(0.68715084 -0.04519887 0.10000000)
		(0.70391061 -0.06651339 0.10000000)
		(0.72067039 -0.08731898 0.10000000)
		(0.73743017 -0.10745644 0.10000000)
		(0.75418994 -0.12677168 0.10000000)
		(0.77094972 -0.14511691 0.10000000)
		(0.78770950 -0.16235175 0.10000000)
		(0.80446927 -0.17834434 0.10000000)
		(0.82122905 -0.19297231 0.10000000)
		(0.83798883 -0.20612372 0.10000000)
		(0.85474860 -0.21769795 0.10000000)
		(0.87150838 -0.22760643 0.10000000)
		(0.88826816 -0.23577335 0.10000000)
		(0.90502793 -0.24213622 0.10000000)
		(0.92178771 -0.24664636 0.10000000)
		(0.93854749 -0.24926924 0.10000000)
		(0.95530726 -0.24998481 0.10000000)
		(0.97206704 -0.24878759 0.10000000)
		(0.98882682 -0.24568673 0.10000000)
		(1.00558659 -0.24070597 0.10000000)
		(1.02234637 -0.23388342 0.10000000)
		(1.03910615 -0.22527127 0.10000000)
		(1.05586592 -0.21493543 0.10000000)
		(1.07262570 -0.20295499 0.10000000)
		(1.08938547 -0.18942160 0.10000000)
		(1.10614525 -0.17443884 0.10000000)
		(1.12290503 -0.15812133 0.10000000)
		(1.13966480 -0.14059393 0.10000000)
		(1.15642458 -0.12199076 0.10000000)
		(1.17318436 -0.10245416 0.10000000)
		(1.18994413 -0.08213362 0.10000000)
		(1.20670391 -0.06118463 0.10000000)
		(1.22346369 -0.03976747 0.10000000)
		(1.24022346 -0.01804602 0.10000000)
		(1.25698324 0.00381350 0.10000000)
		(1.27374302 0.02564385 0.10000000)
		(1.29050279 0.04727798 0.10000000)
		(1.30726257 0.06855036 0.10000000)
		(1.32402235 0.08929821 0.10000000)
		(1.34078212 0.10936279 0.10000000)
		(1.35754190 0.12859056 0.10000000)
		(1.37430168 0.14683440 0.10000000)
		(1.39106145 0.16395472 0.10000000)
		(1.40782123 0.17982052 0.10000000)
		(1.42458101 0.19431040 0.10000000)
		(1.44134078 0.20731349 0.10000000)
		(1.45810056 0.21873029 0.10000000)
		(1.47486034 0.22847345 0.10000000)
		(1.49162011 0.23646841 0.10000000)
		(1.50837989 0.24265400 0.10000000)
		(1.52513966 0.24698289 0.10000000)
		(1.54189944 0.24942196 0.10000000)
		(1.55865922 0.24995254 0.10000000)
		(1.57541899 0.24857058 0.10000000)
		(1.59217877 0.24528664 0.10000000)
		(1.60893855 0.24012587 0.10000000)
		(1.62569832 0.23312773 0.10000000)
		(1.64245810 0.22434579 0.10000000)
		(1.65921788 0.21384724 0.10000000)
		(1.67597765 0.20171241 0.10000000)
		(1.69273743 0.18803414 0.10000000)
		(1.70949721 0.17291711 0.10000000)
		(1.72625698 0.15647698 0.10000000)
		(1.74301676 0.13883955 0.10000000)
		(1.75977654 0.12013977 0.10000000)
		(1.77653631 0.10052072 0.10000000)
		(1.79329609 0.08013252 0.10000000)
		(1.81005587 0.05913118 0.10000000)
		(1.82681564 0.03767739 0.10000000)
		(1.84357542 0.01593530 0.10000000)
		(1.86033520 -0.00592872 0.10000000)
		(1.87709497 -0.02774737 0.10000000)
		(1.89385475 -0.04935371 0.10000000)
		(1.91061453 -0.07058241 0.10000000)
		(1.92737430 -0.09127104 0.10000000)
		(1.94413408 -0.11126130 0.10000000)
		(1.96089385 -0.13040023 0.10000000)
		(1.97765363 -0.14854139 0.10000000)
		(1.99441341 -0.16554595 0.10000000)
		(2.01117318 -0.18128383 0.10000000)
		(2.02793296 -0.19563458 0.10000000)
		(2.04469274 -0.20848841 0.10000000)
		(2.06145251 -0.21974697 0.10000000)
		(2.07821229 -0.22932410 0.10000000)
		(2.09497207 -0.23714652 0.10000000)
		(2.11173184 -0.24315439 0.10000000)
		(2.12849162 -0.24730173 0.10000000)
		(2.14525140 -0.24955681 0.10000000)
		(2.16201117 -0.24990237 0.10000000)
		(2.17877095 -0.24833577 0.10000000)
		(2.19553073 -0.24486899 0.10000000)
		(2.21229050 -0.23952857 0.10000000)
		(2.22905028 -0.23235536 0.10000000)
		(2.24581006 -0.22340425 0.10000000)
		(2.26256983 -0.21274374 0.10000000)
		(2.27932961 -0.20045538 0.10000000)
		(2.29608939 -0.18663322 0.10000000)
		(2.31284916 -0.17138301 0.10000000)
		(2.32960894 -0.15482144 0.10000000)
		(2.34636872 -0.13707523 0.10000000)
		(2.36312849 -0.11828017 0.10000000)
		(2.37988827 -0.09858007 0.10000000)
		(2.39664804 -0.07812568 0.10000000)
		(2.41340782 -0.05707350 0.10000000)
		(2.43016760 -0.03558461 0.10000000)
		(2.44692737 -0.01382344 0.10000000)
		(2.46368715 0.00804350 0.10000000)
		(2.48044693 0.02984890 0.10000000)
		(2.49720670 0.05142590 0.10000000)
		(2.51396648 0.07260941 0.10000000)
		(2.53072626 0.09323734 0.10000000)
		(2.54748603 0.11315185 0.10000000)
		(2.56424581 0.13220057 0.10000000)
		(2.58100559 0.15023773 0.10000000)
		(2.59776536 0.16712533 0.10000000)
		(2.61452514 0.18273415 0.10000000)
		(2.63128492 0.19694475 0.10000000)
		(2.64804469 0.20964841 0.10000000)
		(2.66480447 0.22074791 0.10000000)
		(2.68156425 0.23015833 0.10000000)
		(2.69832402 0.23780766 0.10000000)
		(2.71508380 0.24363737 0.10000000)
		(2.73184358 0.24760286 0.10000000)
		(2.74860335 0.24967379 0.10000000)
		(2.76536313 0.24983430 0.10000000)
		(2.78212291 0.24808317 0.10000000)
		(2.79888268 0.24443380 0.10000000)
		(2.81564246 0.23891411 0.10000000)
		(2.83240223 0.23156634 0.10000000)
		(2.84916201 0.22244671 0.10000000)
		(2.86592179 0.21162499 0.10000000)
		(2.88268156 0.19918400 0.10000000)
		(2.89944134 0.18521893 0.10000000)
		(2.91620112 0.16983663 0.10000000)
		(2.93296089 0.15315480 0.10000000)
		(2.95166480 0.13851690 0.10000000)
		(2.97036872 0.12541984 0.10000000)
		(2.98907263 0.11386361 0.10000000)
		(3.00777654 0.10384820 0.10000000)
		(3.02648045 0.09537363 0.10000000)
		(3.04518436 0.08843989 0.10000000)
		(3.06388827 0.08304698 0.10000000)
		(3.08259218 0.07919490 0.10000000)
		(3.10129609 0.07688366 0.10000000)
		(3.12000000 0.07611324 0.10000000)
		(3.14000000 0.07611324 0.10000000)
		(3.16000000 0.07611324 0.10000000)
		(3.18000000 0.07611324 0.10000000)
		(3.20000000 0.07611324 0.10000000)
		(3.22000000 0.07611324 0.10000000)
		(3.24000000 0.07611324 0.10000000)
		(3.26000000 0.07611324 0.10000000)
		(3.28000000 0.07611324 0.10000000)
		(3.30000000 0.07611324 0.10000000)
		(3.32000000 0.07611324 0.10000000)
		(3.34000000 0.07611324 0.10000000)
		(3.36000000 0.07611324 0.10000000)
		(3.38000000 0.07611324 0.10000000)
		(3.40000000 0.07611324 0.10000000)
		(3.42000000 0.07611324 0.10000000)
		(3.44000000 0.07611324 0.10000000)
		(3.46000000 0.07611324 0.10000000)
		(3.48000000 0.07611324 0.10000000)
		(3.50000000 0.07611324 0.10000000)
		(3.52000000 0.07611324 0.10000000)
		(3.54000000 0.07611324 0.10000000)
		(3.56000000 0.07611324 0.10000000)
		(3.58000000 0.07611324 0.10000000)
		(3.60000000 0.07611324 0.10000000)
		(3.62000000 0.07611324 0.10000000)
		(3.64000000 0.07611324 0.10000000)
		(3.66000000 0.07611324 0.10000000)
		(3.68000000 0.07611324 0.10000000)
		(3.70000000 0.07611324 0.10000000)
		(3.72000000 0.07611324 0.10000000)
		(3.74000000 0.07611324 0.10000000)
		(3.76000000 0.07611324 0.10000000)
		(3.78000000 0.07611324 0.10000000)
		(3.80000000 0.07611324 0.10000000)
		(3.82000000 0.07611324 0.10000000)
		(3.84000000 0.07611324 0.10000000)
		(3.86000000 0.07611324 0.10000000)
		(3.88000000 0.07611324 0.10000000)
		(3.90000000 0.07611324 0.10000000)
		(3.92000000 0.07611324 0.10000000)
		(3.94000000 0.07611324 0.10000000)
		(3.96000000 0.07611324 0.10000000)
		(3.98000000 0.07611324 0.10000000)
		(4.00000000 0.07611324 0.10000000)
	)
	polyLine 3 2
	(
		(-1.00000000 0.43472177 0.00000000)
		(-0.98000000 0.43407732 0.00000000)
		(-0.96000000 0.43343287 0.00000000)
		(-0.94000000 0.43278842 0.00000000)
		(-0.92000000 0.43214397 0.00000000)
		(-0.90000000 0.43149952 0.00000000)
		(-0.88000000 0.43085507 0.00000000)
		(-0.86000000 0.43021061 0.00000000)
		(-0.84000000 0.42956616 0.00000000)
		(-0.82000000 0.42892171 0.00000000)
		(-0.80000000 0.42827726 0.00000000)
		(-0.78000000 0.42763281 0.00000000)
		(-0.76000000 0.42698836 0.00000000)
		(-0.74000000 0.42634391 0.00000000)
		(-0.72000000 0.42569946 0.00000000)
		(-0.70000000 0.42505501 0.00000000)
		(-0.68000000 0.42441056 0.00000000)
		(-0.66000000 0.42376611 0.00000000)
		(-0.64000000 0.42312166 0.00000000)
		(-0.62000000 0.42247721 0.00000000)
		(-0.60000000 0.42183275 0.00000000)
		(-0.58000000 0.42118830 0.00000000)
		(-0.56000000 0.42054385 0.00000000)
		(-0.54000000 0.41989940 0.00000000)
		(-0.52000000 0.41925495 0.00000000)
		(-0.50000000 0.41861050 0.00000000)
		(-0.48000000 0.41796605 0.00000000)
		(-0.46000000 0.41732160 0.00000000)
		(-0.44000000 0.41667715 0.00000000)
		(-0.42000000 0.41603270 0.00000000)
		(-0.40000000 0.41538825 0.00000000)
		(-0.38000000 0.41474380 0.00000000)
		(-0.36000000 0.41409935 0.00000000)
		(-0.34000000 0.41345489 0.00000000)
		(-0.32000000 0.41281044 0.00000000)
		(-0.30000000 0.41216599 0.00000000)
		(-0.28000000 0.41152154 0.00000000)
		(-0.26000000 0.41087709 0.00000000)
		(-0.24000000 0.41023264 0.00000000)
		(-0.22000000 0.40958819 0.00000000)
		(-0.20000000 0.40894374 0.00000000)
		(-0.18000000 0.40829929 0.00000000)
		(-0.16000000 0.40765484 0.00000000)
		(-0.14000000 0.40701039 0.00000000)
		(-0.12000000 0.40636594 0.00000000)
		(-0.10000000 0.40572149 0.00000000)
		(-0.08162011 0.40419431 0.00000000)
		(-0.06324022 0.40652322 0.00000000)
		(-0.04486034 0.41270824 0.00000000)
		(-0.02648045 0.42274934 0.00000000)
		(-0.00810056 0.43664654 0.00000000)
		(0.01027933 0.45439984 0.00000000)
		(0.02865922 0.47600923 0.00000000)
		(0.04703911 0.50147471 0.00000000)
		(0.06541899 0.53079629 0.00000000)
		(0.08379888 0.56397397 0.00000000)
		(0.10055866 0.59565958 0.00000000)
		(0.11731844 0.62661325 0.00000000)
		(0.13407821 0.65659812 0.00000000)
		(0.15083799 0.68538475 0.00000000)
		(0.16759777 0.71275289 0.00000000)
		(0.18435754 0.73849312 0.00000000)
		(0.20111732 0.76240849 0.00000000)
		(0.21787709 0.78431601 0.00000000)
		(0.23463687 0.80404804 0.00000000)
		(0.25139665 0.82145361 0.00000000)
		(0.26815642 0.83639954 0.00000000)
		(0.28491620 0.84877146 0.00000000)
		(0.30167598 0.85847470 0.00000000)
		(0.31843575 0.86543503 0.00000000)
		(0.33519553 0.86959919 0.00000000)
		(0.35195531 0.87093530 0.00000000)
		(0.36871508 0.86943316 0.00000000)
		(0.38547486 0.86510425 0.00000000)
		(0.40223464 0.85798169 0.00000000)
		(0.41899441 0.84811999 0.00000000)
		(0.43575419 0.83559460 0.00000000)
		(0.45251397 0.82050137 0.00000000)
		(0.46927374 0.80295577 0.00000000)
		(0.48603352 0.78309207 0.00000000)
		(0.50279330 0.76106225 0.00000000)
		(0.51955307 0.73703488 0.00000000)
		(0.53631285 0.71119381 0.00000000)
		(0.55307263 0.68373676 0.00000000)
		(0.56983240 0.65487382 0.00000000)
		(0.58659218 0.62482584 0.00000000)
		(0.60335196 0.59382274 0.00000000)
		(0.62011173 0.56210175 0.00000000)
		(0.63687151 0.52990557 0.00000000)
		(0.65363128 0.49748057 0.00000000)
		(0.67039106 0.46507485 0.00000000)
		(0.68715084 0.43293636 0.00000000)
		(0.70391061 0.40131101 0.00000000)
		(0.72067039 0.37044080 0.00000000)
		(0.73743017 0.34056193 0.00000000)
		(0.75418994 0.31190302 0.00000000)
		(0.77094972 0.28468336 0.00000000)
		(0.78770950 0.25911122 0.00000000)
		(0.80446927 0.23538228 0.00000000)
		(0.82122905 0.21367809 0.00000000)
		(0.83798883 0.19416474 0.00000000)
		(0.85474860 0.17699152 0.00000000)
		(0.87150838 0.16228985 0.00000000)
		(0.88826816 0.15017221 0.00000000)
		(0.90502793 0.14073133 0.00000000)
		(0.92178771 0.13403943 0.00000000)
		(0.93854749 0.13014774 0.00000000)
		(0.95530726 0.12908602 0.00000000)
		(0.97206704 0.13086239 0.00000000)
		(0.98882682 0.13546328 0.00000000)
		(1.00558659 0.14285346 0.00000000)
		(1.02234637 0.15297640 0.00000000)
		(1.03910615 0.16575464 0.00000000)
		(1.05586592 0.18109039 0.00000000)
		(1.07262570 0.19886633 0.00000000)
		(1.08938547 0.21894644 0.00000000)
		(1.10614525 0.24117706 0.00000000)
		(1.12290503 0.26538810 0.00000000)
		(1.13966480 0.29139431 0.00000000)
		(1.15642458 0.31899669 0.00000000)
		(1.17318436 0.34798404 0.00000000)
		(1.18994413 0.37813456 0.00000000)
		(1.20670391 0.40921755 0.00000000)
		(1.22346369 0.44099518 0.00000000)
		(1.24022346 0.47322429 0.00000000)
		(1.25698324 0.50565827 0.00000000)
		(1.27374302 0.53804896 0.00000000)
		(1.29050279 0.57014852 0.00000000)
		(1.30726257 0.60171132 0.00000000)
		(1.32402235 0.63249587 0.00000000)
		(1.34078212 0.66226661 0.00000000)
		(1.35754190 0.69079574 0.00000000)
		(1.37430168 0.71786497 0.00000000)
		(1.39106145 0.74326718 0.00000000)
		(1.40782123 0.76680800 0.00000000)
		(1.42458101 0.78830730 0.00000000)
		(1.44134078 0.80760058 0.00000000)
		(1.45810056 0.82454021 0.00000000)
		(1.47486034 0.83899658 0.00000000)
		(1.49162011 0.85085907 0.00000000)
		(1.50837989 0.86003692 0.00000000)
		(1.52513966 0.86645989 0.00000000)
		(1.54189944 0.87007885 0.00000000)
		(1.55865922 0.87086610 0.00000000)
		(1.57541899 0.86881562 0.00000000)
		(1.59217877 0.86394310 0.00000000)
		(1.60893855 0.85628581 0.00000000)
		(1.62569832 0.84590236 0.00000000)
		(1.64245810 0.83287219 0.00000000)
		(1.65921788 0.81729501 0.00000000)
		(1.67597765 0.79928999 0.00000000)
		(1.69273743 0.77899493 0.00000000)
		(1.70949721 0.75656509 0.00000000)
		(1.72625698 0.73217211 0.00000000)
		(1.74301676 0.70600264 0.00000000)
		(1.75977654 0.67825691 0.00000000)
		(1.77653631 0.64914722 0.00000000)
		(1.79329609 0.61889631 0.00000000)
		(1.81005587 0.58773565 0.00000000)
		(1.82681564 0.55590367 0.00000000)
		(1.84357542 0.52364394 0.00000000)
		(1.86033520 0.49120329 0.00000000)
		(1.87709497 0.45882995 0.00000000)
		(1.89385475 0.42677163 0.00000000)
		(1.91061453 0.39527362 0.00000000)
		(1.92737430 0.36457695 0.00000000)
		(1.94413408 0.33491648 0.00000000)
		(1.96089385 0.30651917 0.00000000)
		(1.97765363 0.27960230 0.00000000)
		(1.99441341 0.25437184 0.00000000)
		(2.01117318 0.23102083 0.00000000)
		(2.02793296 0.20972796 0.00000000)
		(2.04469274 0.19065613 0.00000000)
		(2.06145251 0.17395130 0.00000000)
		(2.07821229 0.15974127 0.00000000)
		(2.09497207 0.14813478 0.00000000)
		(2.11173184 0.13922062 0.00000000)
		(2.12849162 0.13306703 0.00000000)
		(2.14525140 0.12972106 0.00000000)
		(2.16201117 0.12920834 0.00000000)
		(2.17877095 0.13153278 0.00000000)
		(2.19553073 0.13667660 0.00000000)
		(2.21229050 0.14460043 0.00000000)
		(2.22905028 0.15524365 0.00000000)
		(2.24581006 0.16852482 0.00000000)
		(2.26256983 0.18434232 0.00000000)
		(2.27932961 0.20257511 0.00000000)
		(2.29608939 0.22308369 0.00000000)
		(2.31284916 0.24571113 0.00000000)
		(2.32960894 0.27028430 0.00000000)
		(2.34636872 0.29661517 0.00000000)
		(2.36312849 0.32450227 0.00000000)
		(2.37988827 0.35373220 0.00000000)
		(2.39664804 0.38408133 0.00000000)
		(2.41340782 0.41531743 0.00000000)
		(2.43016760 0.44720148 0.00000000)
		(2.44692737 0.47948953 0.00000000)
		(2.46368715 0.51193452 0.00000000)
		(2.48044693 0.54428819 0.00000000)
		(2.49720670 0.57630298 0.00000000)
		(2.51396648 0.60773393 0.00000000)
		(2.53072626 0.63834054 0.00000000)