/*--------------------------------*- C++ -*----------------------------------*\\
/*--------------------------------*- C++ -*----------------------------------*\\
| =========                 |                                                 |
| \\\\      /  F ield         | OpenFOAM: The Open Source CFD Toolbox           |
|  \\\\    /   O peration     | Version:  v2012                                 |
|   \\\\  /    A nd           | Website:  www.openfoam.com                      |
|    \\\\/     M anipulation  |                                                 |
\\*---------------------------------------------------------------------------*/
FoamFile
{
    version     2.0;
    format      ascii;
    class       dictionary;
    object      blockMeshDict;
}
// * * * * * * * * * * * * * * * * * * * * * * * * * * * * * * * * * * * * * //

scale   0.01;

xmin -1;
xmax 5;
ymin 0;
ymax 0.5;
zmin 0;
zmax 0.1;

vertices
(
    (-1.00000000 -0.20361815 0.00000000)
    (4.00000000 -0.11631050 0.00000000)
    (4.00000000 0.38368950 0.00000000)
    (-1.00000000 0.29638185 0.00000000)
    (-1.00000000 -0.20361815 0.10000000)
    (4.00000000 -0.11631050 0.10000000)
    (4.00000000 0.38368950 0.10000000)
    (-1.00000000 0.29638185 0.10000000)
);

blocks
(
    hex (0 1 2 3 4 5 6 7) (200 20 1) simpleGrading (1 1 1)
);

edges
(
	polyLine 0 1
	(
		(-1.00000000 -0.20361815 0.00000000)
		(-0.98000000 -0.20361815 0.00000000)
		(-0.96000000 -0.20361815 0.00000000)
		(-0.94000000 -0.20361815 0.00000000)
		(-0.92000000 -0.20361815 0.00000000)
		(-0.90000000 -0.20361815 0.00000000)
		(-0.88000000 -0.20361815 0.00000000)
		(-0.86000000 -0.20361815 0.00000000)
		(-0.84000000 -0.20361815 0.00000000)
		(-0.82000000 -0.20361815 0.00000000)
		(-0.80000000 -0.20361815 0.00000000)
		(-0.78000000 -0.20361815 0.00000000)
		(-0.76000000 -0.20361815 0.00000000)
		(-0.74000000 -0.20361815 0.00000000)
		(-0.72000000 -0.20361815 0.00000000)
		(-0.70000000 -0.20361815 0.00000000)
		(-0.68000000 -0.20361815 0.00000000)
		(-0.66000000 -0.20361815 0.00000000)
		(-0.64000000 -0.20361815 0.00000000)
		(-0.62000000 -0.20361815 0.00000000)
		(-0.60000000 -0.20361815 0.00000000)
		(-0.58000000 -0.20361815 0.00000000)
		(-0.56000000 -0.20361815 0.00000000)
		(-0.54000000 -0.20361815 0.00000000)
		(-0.52000000 -0.20361815 0.00000000)
		(-0.50000000 -0.20361815 0.00000000)
		(-0.48000000 -0.20361815 0.00000000)
		(-0.46000000 -0.20361815 0.00000000)
		(-0.44000000 -0.20361815 0.00000000)
		(-0.42000000 -0.20361815 0.00000000)
		(-0.40000000 -0.20361815 0.00000000)
		(-0.38000000 -0.20361815 0.00000000)
		(-0.36000000 -0.20361815 0.00000000)
		(-0.34000000 -0.20361815 0.00000000)
		(-0.32000000 -0.20361815 0.00000000)
		(-0.30000000 -0.20361815 0.00000000)
		(-0.28000000 -0.20361815 0.00000000)
		(-0.26000000 -0.20361815 0.00000000)
		(-0.24000000 -0.20361815 0.00000000)
		(-0.22000000 -0.20361815 0.00000000)
		(-0.20000000 -0.20361815 0.00000000)
		(-0.18000000 -0.20361815 0.00000000)
		(-0.16000000 -0.20361815 0.00000000)
		(-0.14000000 -0.20361815 0.00000000)
		(-0.12000000 -0.20361815 0.00000000)
		(-0.10000000 -0.20361815 0.00000000)
		(-0.08162011 -0.20296816 0.00000000)
		(-0.06324022 -0.20101819 0.00000000)
		(-0.04486034 -0.19776823 0.00000000)
		(-0.02648045 -0.19321830 0.00000000)
		(-0.00810056 -0.18736838 0.00000000)
		(0.01027933 -0.18021848 0.00000000)
		(0.02865922 -0.17176860 0.00000000)
		(0.04703911 -0.16201874 0.00000000)
		(0.06541899 -0.15096890 0.00000000)
		(0.08379888 -0.13861907 0.00000000)
		(0.10055866 -0.12311550 0.00000000)
		(0.11731844 -0.10695942 0.00000000)
		(0.13407821 -0.09023645 0.00000000)
		(0.15083799 -0.07303523 0.00000000)
		(0.16759777 -0.05544692 0.00000000)
		(0.18435754 -0.03756474 0.00000000)
		(0.20111732 -0.01948347 0.00000000)
		(0.21787709 -0.00129894 0.00000000)
		(0.23463687 0.01689248 0.00000000)
		(0.25139665 0.03499437 0.00000000)
		(0.26815642 0.05291079 0.00000000)
		(0.28491620 0.07054678 0.00000000)
		(0.30167598 0.08780887 0.00000000)
		(0.31843575 0.10460557 0.00000000)
		(0.33519553 0.12084787 0.00000000)
		(0.35195531 0.13644967 0.00000000)
		(0.36871508 0.15132829 0.00000000)
		(0.38547486 0.16540486 0.00000000)
		(0.40223464 0.17860479 0.00000000)
		(0.41899441 0.19085811 0.00000000)
		(0.43575419 0.20209989 0.00000000)
		(0.45251397 0.21227053 0.00000000)
		(0.46927374 0.22131614 0.00000000)
		(0.48603352 0.22918877 0.00000000)
		(0.50279330 0.23584670 0.00000000)
		(0.51955307 0.24125464 0.00000000)
		(0.53631285 0.24538393 0.00000000)
		(0.55307263 0.24821269 0.00000000)
		(0.56983240 0.24972591 0.00000000)
		(0.58659218 0.24991559 0.00000000)
		(0.60335196 0.24878071 0.00000000)
		(0.62011173 0.24632730 0.00000000)
		(0.63687151 0.24256835 0.00000000)
		(0.65363128 0.23752378 0.00000000)
		(0.67039106 0.23122034 0.00000000)
		(0.68715084 0.22369143 0.00000000)
		(0.70391061 0.21497695 0.00000000)
		(0.72067039 0.20512310 0.00000000)
		(0.73743017 0.19418209 0.00000000)
		(0.75418994 0.18221192 0.00000000)
		(0.77094972 0.16927602 0.00000000)
		(0.78770950 0.15544295 0.00000000)
		(0.80446927 0.14078604 0.00000000)
		(0.82122905 0.12538297 0.00000000)
		(0.83798883 0.10931536 0.00000000)
		(0.85474860 0.09266838 0.00000000)
		(0.87150838 0.07553025 0.00000000)
		(0.88826816 0.05799182 0.00000000)
		(0.90502793 0.04014603 0.00000000)
		(0.92178771 0.02208747 0.00000000)
		(0.93854749 0.00391184 0.00000000)
		(0.95530726 -0.01428452 0.00000000)
		(0.97206704 -0.03240518 0.00000000)
		(0.98882682 -0.05035408 0.00000000)
		(1.00558659 -0.06803611 0.00000000)
		(1.02234637 -0.08535755 0.00000000)
		(1.03910615 -0.10222659 0.00000000)
		(1.05586592 -0.11855383 0.00000000)
		(1.07262570 -0.13425273 0.00000000)
		(1.08938547 -0.14924010 0.00000000)
		(1.10614525 -0.16343649 0.00000000)
		(1.12290503 -0.17676667 0.00000000)
		(1.13966480 -0.18915998 0.00000000)
		(1.15642458 -0.20055074 0.00000000)
		(1.17318436 -0.21087858 0.00000000)
		(1.18994413 -0.22008877 0.00000000)
		(1.20670391 -0.22813249 0.00000000)
		(1.22346369 -0.23496710 0.00000000)
		(1.24022346 -0.24055638 0.00000000)
		(1.25698324 -0.24487072 0.00000000)
		(1.27374302 -0.24788723 0.00000000)
		(1.29050279 -0.24958995 0.00000000)
		(1.30726257 -0.24996984 0.00000000)
		(1.32402235 -0.24902488 0.00000000)
		(1.34078212 -0.24676009 0.00000000)
		(1.35754190 -0.24318748 0.00000000)
		(1.37430168 -0.23832596 0.00000000)
		(1.39106145 -0.23220132 0.00000000)
		(1.40782123 -0.22484601 0.00000000)
		(1.42458101 -0.21629902 0.00000000)
		(1.44134078 -0.20660564 0.00000000)
		(1.45810056 -0.19581725 0.00000000)
		(1.47486034 -0.18399103 0.00000000)
		(1.49162011 -0.17118965 0.00000000)
		(1.50837989 -0.15748097 0.00000000)
		(1.52513966 -0.14293763 0.00000000)
		(1.54189944 -0.12763673 0.00000000)
		(1.55865922 -0.11165935 0.00000000)
		(1.57541899 -0.09509018 0.00000000)
		(1.59217877 -0.07801703 0.00000000)
		(1.60893855 -0.06053039 0.00000000)
		(1.62569832 -0.04272293 0.00000000)
		(1.64245810 -0.02468905 0.00000000)
		(1.65921788 -0.00652431 0.00000000)
		(1.67597765 0.01167501 0.00000000)
		(1.69273743 0.02981244 0.00000000)
		(1.70949721 0.04779188 0.00000000)
		(1.72625698 0.06551801 0.00000000)
		(1.74301676 0.08289690 0.00000000)
		(1.75977654 0.09983644 0.00000000)
		(1.77653631 0.11624684 0.00000000)
		(1.79329609 0.13204113 0.00000000)
		(1.81005587 0.14713561 0.00000000)
		(1.82681564 0.16145026 0.00000000)
		(1.84357542 0.17490923 0.00000000)
		(1.86033520 0.18744118 0.00000000)
		(1.87709497 0.19897969 0.00000000)
		(1.89385475 0.20946360 0.00000000)
		(1.91061453 0.21883736 0.00000000)
		(1.92737430 0.22705128 0.00000000)
		(1.94413408 0.23406182 0.00000000)
		(1.96089385 0.23983184 0.00000000)
		(1.97765363 0.24433075 0.00000000)
		(1.99441341 0.24753470 0.00000000)
		(2.01117318 0.24942672 0.00000000)
		(2.02793296 0.24999677 0.00000000)
		(2.04469274 0.24924184 0.00000000)
		(2.06145251 0.24716593 0.00000000)
		(2.07821229 0.24378004 0.00000000)
		(2.09497207 0.23910211 0.00000000)
		(2.11173184 0.23315694 0.00000000)
		(2.12849162 0.22597603 0.00000000)
		(2.14525140 0.21759745 0.00000000)
		(2.16201117 0.20806561 0.00000000)
		(2.17877095 0.19743102 0.00000000)
		(2.19553073 0.18575004 0.00000000)
		(2.21229050 0.17308458 0.00000000)
		(2.22905028 0.15950177 0.00000000)
		(2.24581006 0.14507361 0.00000000)
		(2.26256983 0.12987655 0.00000000)
		(2.27932961 0.11399115 0.00000000)
		(2.29608939 0.09750160 0.00000000)
		(2.31284916 0.08049528 0.00000000)
		(2.32960894 0.06306234 0.00000000)
		(2.34636872 0.04529517 0.00000000)
		(2.36312849 0.02728793 0.00000000)
		(2.37988827 0.00913607 0.00000000)
		(2.39664804 -0.00906421 0.00000000)
		(2.41340782 -0.02721645 0.00000000)
		(2.43016760 -0.04522445 0.00000000)
		(2.44692737 -0.06299275 0.00000000)
		(2.46368715 -0.08042720 0.00000000)
		(2.48044693 -0.09743538 0.00000000)
		(2.49720670 -0.11392715 0.00000000)
		(2.51396648 -0.12981510 0.00000000)
		(2.53072626 -0.14501504 0.00000000)
		(2.54748603 -0.15944640 0.00000000)
		(2.56424581 -0.17303268 0.00000000)
		(2.58100559 -0.18570190 0.00000000)
		(2.59776536 -0.19738689 0.00000000)
		(2.61452514 -0.20802574 0.00000000)
		(2.63128492 -0.21756204 0.00000000)
		(2.64804469 -0.22594527 0.00000000)
		(2.66480447 -0.23313098 0.00000000)
		(2.68156425 -0.23908110 0.00000000)
		(2.69832402 -0.24376409 0.00000000)
		(2.71508380 -0.24715512 0.00000000)
		(2.73184358 -0.24923624 0.00000000)
		(2.74860335 -0.24999640 0.00000000)
		(2.76536313 -0.24943157 0.00000000)
		(2.78212291 -0.24754476 0.00000000)
		(2.79888268 -0.24434596 0.00000000)
		(2.81564246 -0.23985213 0.00000000)
		(2.83240223 -0.23408708 0.00000000)
		(2.84916201 -0.22708136 0.00000000)
		(2.86592179 -0.21887212 0.00000000)
		(2.88268156 -0.20950285 0.00000000)
		(2.89944134 -0.19902321 0.00000000)
		(2.91620112 -0.18748875 0.00000000)
		(2.93296089 -0.17496060 0.00000000)
		(2.95166480 -0.16381708 0.00000000)
		(2.97036872 -0.15384656 0.00000000)
		(2.98907263 -0.14504905 0.00000000)
		(3.00777654 -0.13742453 0.00000000)
		(3.02648045 -0.13097302 0.00000000)
		(3.04518436 -0.12569451 0.00000000)
		(3.06388827 -0.12158901 0.00000000)
		(3.08259218 -0.11865650 0.00000000)
		(3.10129609 -0.11689700 0.00000000)
		(3.12000000 -0.11631050 0.00000000)
		(3.14000000 -0.11631050 0.00000000)
		(3.16000000 -0.11631050 0.00000000)
		(3.18000000 -0.11631050 0.00000000)
		(3.20000000 -0.11631050 0.00000000)
		(3.22000000 -0.11631050 0.00000000)
		(3.24000000 -0.11631050 0.00000000)
		(3.26000000 -0.11631050 0.00000000)
		(3.28000000 -0.11631050 0.00000000)
		(3.30000000 -0.11631050 0.00000000)
		(3.32000000 -0.11631050 0.00000000)
		(3.34000000 -0.11631050 0.00000000)
		(3.36000000 -0.11631050 0.00000000)
		(3.38000000 -0.11631050 0.00000000)
		(3.40000000 -0.11631050 0.00000000)
		(3.42000000 -0.11631050 0.00000000)
		(3.44000000 -0.11631050 0.00000000)
		(3.46000000 -0.11631050 0.00000000)
		(3.48000000 -0.11631050 0.00000000)
		(3.50000000 -0.11631050 0.00000000)
		(3.52000000 -0.11631050 0.00000000)
		(3.54000000 -0.11631050 0.00000000)
		(3.56000000 -0.11631050 0.00000000)
		(3.58000000 -0.11631050 0.00000000)
		(3.60000000 -0.11631050 0.00000000)
		(3.62000000 -0.11631050 0.00000000)
		(3.64000000 -0.11631050 0.00000000)
		(3.66000000 -0.11631050 0.00000000)
		(3.68000000 -0.11631050 0.00000000)
		(3.70000000 -0.11631050 0.00000000)
		(3.72000000 -0.11631050 0.00000000)
		(3.74000000 -0.11631050 0.00000000)
		(3.76000000 -0.11631050 0.00000000)
		(3.78000000 -0.11631050 0.00000000)
		(3.80000000 -0.11631050 0.00000000)
		(3.82000000 -0.11631050 0.00000000)
		(3.84000000 -0.11631050 0.00000000)
		(3.86000000 -0.11631050 0.00000000)
		(3.88000000 -0.11631050 0.00000000)
		(3.90000000 -0.11631050 0.00000000)
		(3.92000000 -0.11631050 0.00000000)
		(3.94000000 -0.11631050 0.00000000)
		(3.96000000 -0.11631050 0.00000000)
		(3.98000000 -0.11631050 0.00000000)
		(4.00000000 -0.11631050 0.00000000)
	)
	polyLine 4 5
	(
		(-1.00000000 -0.20361815 0.10000000)
		(-0.98000000 -0.20361815 0.10000000)
		(-0.96000000 -0.20361815 0.10000000)
		(-0.94000000 -0.20361815 0.10000000)
		(-0.92000000 -0.20361815 0.10000000)
		(-0.90000000 -0.20361815 0.10000000)
		(-0.88000000 -0.20361815 0.10000000)
		(-0.86000000 -0.20361815 0.10000000)
		(-0.84000000 -0.20361815 0.10000000)
		(-0.82000000 -0.20361815 0.10000000)
		(-0.80000000 -0.20361815 0.10000000)
		(-0.78000000 -0.20361815 0.10000000)
		(-0.76000000 -0.20361815 0.10000000)
		(-0.74000000 -0.20361815 0.10000000)
		(-0.72000000 -0.20361815 0.10000000)
		(-0.70000000 -0.20361815 0.10000000)
		(-0.68000000 -0.20361815 0.10000000)
		(-0.66000000 -0.20361815 0.10000000)
		(-0.64000000 -0.20361815 0.10000000)
		(-0.62000000 -0.20361815 0.10000000)
		(-0.60000000 -0.20361815 0.10000000)
		(-0.58000000 -0.20361815 0.10000000)
		(-0.56000000 -0.20361815 0.10000000)
		(-0.54000000 -0.20361815 0.10000000)
		(-0.52000000 -0.20361815 0.10000000)
		(-0.50000000 -0.20361815 0.10000000)
		(-0.48000000 -0.20361815 0.10000000)
		(-0.46000000 -0.20361815 0.10000000)
		(-0.44000000 -0.20361815 0.10000000)
		(-0.42000000 -0.20361815 0.10000000)
		(-0.40000000 -0.20361815 0.10000000)
		(-0.38000000 -0.20361815 0.10000000)
		(-0.36000000 -0.20361815 0.10000000)
		(-0.34000000 -0.20361815 0.10000000)
		(-0.32000000 -0.20361815 0.10000000)
		(-0.30000000 -0.20361815 0.10000000)
		(-0.28000000 -0.20361815 0.10000000)
		(-0.26000000 -0.20361815 0.10000000)
		(-0.24000000 -0.20361815 0.10000000)
		(-0.22000000 -0.20361815 0.10000000)
		(-0.20000000 -0.20361815 0.10000000)
		(-0.18000000 -0.20361815 0.10000000)
		(-0.16000000 -0.20361815 0.10000000)
		(-0.14000000 -0.20361815 0.10000000)
		(-0.12000000 -0.20361815 0.10000000)
		(-0.10000000 -0.20361815 0.10000000)
		(-0.08162011 -0.20296816 0.10000000)
		(-0.06324022 -0.20101819 0.10000000)
		(-0.04486034 -0.19776823 0.10000000)
		(-0.02648045 -0.19321830 0.10000000)
		(-0.00810056 -0.18736838 0.10000000)
		(0.01027933 -0.18021848 0.10000000)
		(0.02865922 -0.17176860 0.10000000)
		(0.04703911 -0.16201874 0.10000000)
		(0.06541899 -0.15096890 0.10000000)
		(0.08379888 -0.13861907 0.10000000)
		(0.10055866 -0.12311550 0.10000000)
		(0.11731844 -0.10695942 0.10000000)
		(0.13407821 -0.09023645 0.10000000)
		(0.15083799 -0.07303523 0.10000000)
		(0.16759777 -0.05544692 0.10000000)
		(0.18435754 -0.03756474 0.10000000)
		(0.20111732 -0.01948347 0.10000000)
		(0.21787709 -0.00129894 0.10000000)
		(0.23463687 0.01689248 0.10000000)
		(0.25139665 0.03499437 0.10000000)
		(0.26815642 0.05291079 0.10000000)
		(0.28491620 0.07054678 0.10000000)
		(0.30167598 0.08780887 0.10000000)
		(0.31843575 0.10460557 0.10000000)
		(0.33519553 0.12084787 0.10000000)
		(0.35195531 0.13644967 0.10000000)
		(0.36871508 0.15132829 0.10000000)
		(0.38547486 0.16540486 0.10000000)
		(0.40223464 0.17860479 0.10000000)
		(0.41899441 0.19085811 0.10000000)
		(0.43575419 0.20209989 0.10000000)
		(0.45251397 0.21227053 0.10000000)
		(0.46927374 0.22131614 0.10000000)
		(0.48603352 0.22918877 0.10000000)
		(0.50279330 0.23584670 0.10000000)
		(0.51955307 0.24125464 0.10000000)
		(0.53631285 0.24538393 0.10000000)
		(0.55307263 0.24821269 0.10000000)
		(0.56983240 0.24972591 0.10000000)
		(0.58659218 0.24991559 0.10000000)
		(0.60335196 0.24878071 0.10000000)
		(0.62011173 0.24632730 0.10000000)
		(0.63687151 0.24256835 0.10000000)
		(0.65363128 0.23752378 0.10000000)
		(0.67039106 0.23122034 0.10000000)
		(0.68715084 0.22369143 0.10000000)
		(0.70391061 0.21497695 0.10000000)
		(0.72067039 0.20512310 0.10000000)
		(0.73743017 0.19418209 0.10000000)
		(0.75418994 0.18221192 0.10000000)
		(0.77094972 0.16927602 0.10000000)
		(0.78770950 0.15544295 0.10000000)
		(0.80446927 0.14078604 0.10000000)
		(0.82122905 0.12538297 0.10000000)
		(0.83798883 0.10931536 0.10000000)
		(0.85474860 0.09266838 0.10000000)
		(0.87150838 0.07553025 0.10000000)
		(0.88826816 0.05799182 0.10000000)
		(0.90502793 0.04014603 0.10000000)
		(0.92178771 0.02208747 0.10000000)
		(0.93854749 0.00391184 0.10000000)
		(0.95530726 -0.01428452 0.10000000)
		(0.97206704 -0.03240518 0.10000000)
		(0.98882682 -0.05035408 0.10000000)
		(1.00558659 -0.06803611 0.10000000)
		(1.02234637 -0.08535755 0.10000000)
		(1.03910615 -0.10222659 0.10000000)
		(1.05586592 -0.11855383 0.10000000)
		(1.07262570 -0.13425273 0.10000000)
		(1.08938547 -0.14924010 0.10000000)
		(1.10614525 -0.16343649 0.10000000)
		(1.12290503 -0.17676667 0.10000000)
		(1.13966480 -0.18915998 0.10000000)
		(1.15642458 -0.20055074 0.10000000)
		(1.17318436 -0.21087858 0.10000000)
		(1.18994413 -0.22008877 0.10000000)
		(1.20670391 -0.22813249 0.10000000)
		(1.22346369 -0.23496710 0.10000000)
		(1.24022346 -0.24055638 0.10000000)
		(1.25698324 -0.24487072 0.10000000)
		(1.27374302 -0.24788723 0.10000000)
		(1.29050279 -0.24958995 0.10000000)
		(1.30726257 -0.24996984 0.10000000)
		(1.32402235 -0.24902488 0.10000000)
		(1.34078212 -0.24676009 0.10000000)
		(1.35754190 -0.24318748 0.10000000)
		(1.37430168 -0.23832596 0.10000000)
		(1.39106145 -0.23220132 0.10000000)
		(1.40782123 -0.22484601 0.10000000)
		(1.42458101 -0.21629902 0.10000000)
		(1.44134078 -0.20660564 0.10000000)
		(1.45810056 -0.19581725 0.10000000)
		(1.47486034 -0.18399103 0.10000000)
		(1.49162011 -0.17118965 0.10000000)
		(1.50837989 -0.15748097 0.10000000)
		(1.52513966 -0.14293763 0.10000000)
		(1.54189944 -0.12763673 0.10000000)
		(1.55865922 -0.11165935 0.10000000)
		(1.57541899 -0.09509018 0.10000000)
		(1.59217877 -0.07801703 0.10000000)
		(1.60893855 -0.06053039 0.10000000)
		(1.62569832 -0.04272293 0.10000000)
		(1.64245810 -0.02468905 0.10000000)
		(1.65921788 -0.00652431 0.10000000)
		(1.67597765 0.01167501 0.10000000)
		(1.69273743 0.02981244 0.10000000)
		(1.70949721 0.04779188 0.10000000)
		(1.72625698 0.06551801 0.10000000)
		(1.74301676 0.08289690 0.10000000)
		(1.75977654 0.09983644 0.10000000)
		(1.77653631 0.11624684 0.10000000)
		(1.79329609 0.13204113 0.10000000)
		(1.81005587 0.14713561 0.10000000)
		(1.82681564 0.16145026 0.10000000)
		(1.84357542 0.17490923 0.10000000)
		(1.86033520 0.18744118 0.10000000)
		(1.87709497 0.19897969 0.10000000)
		(1.89385475 0.20946360 0.10000000)
		(1.91061453 0.21883736 0.10000000)
		(1.92737430 0.22705128 0.10000000)
		(1.94413408 0.23406182 0.10000000)
		(1.96089385 0.23983184 0.10000000)
		(1.97765363 0.24433075 0.10000000)
		(1.99441341 0.24753470 0.10000000)
		(2.01117318 0.24942672 0.10000000)
		(2.02793296 0.24999677 0.10000000)
		(2.04469274 0.24924184 0.10000000)
		(2.06145251 0.24716593 0.10000000)
		(2.07821229 0.24378004 0.10000000)
		(2.09497207 0.23910211 0.10000000)
		(2.11173184 0.23315694 0.10000000)
		(2.12849162 0.22597603 0.10000000)
		(2.14525140 0.21759745 0.10000000)
		(2.16201117 0.20806561 0.10000000)
		(2.17877095 0.19743102 0.10000000)
		(2.19553073 0.18575004 0.10000000)
		(2.21229050 0.17308458 0.10000000)
		(2.22905028 0.15950177 0.10000000)
		(2.24581006 0.14507361 0.10000000)
		(2.26256983 0.12987655 0.10000000)
		(2.27932961 0.11399115 0.10000000)
		(2.29608939 0.09750160 0.10000000)
		(2.31284916 0.08049528 0.10000000)
		(2.32960894 0.06306234 0.10000000)
		(2.34636872 0.04529517 0.10000000)
		(2.36312849 0.02728793 0.10000000)
		(2.37988827 0.00913607 0.10000000)
		(2.39664804 -0.00906421 0.10000000)
		(2.41340782 -0.02721645 0.10000000)
		(2.43016760 -0.04522445 0.10000000)
		(2.44692737 -0.06299275 0.10000000)
		(2.46368715 -0.08042720 0.10000000)
		(2.48044693 -0.09743538 0.10000000)
		(2.49720670 -0.11392715 0.10000000)
		(2.51396648 -0.12981510 0.10000000)
		(2.53072626 -0.14501504 0.10000000)
		(2.54748603 -0.15944640 0.10000000)
		(2.56424581 -0.17303268 0.10000000)
		(2.58100559 -0.18570190 0.10000000)
		(2.59776536 -0.19738689 0.10000000)
		(2.61452514 -0.20802574 0.10000000)
		(2.63128492 -0.21756204 0.10000000)
		(2.64804469 -0.22594527 0.10000000)
		(2.66480447 -0.23313098 0.10000000)
		(2.68156425 -0.23908110 0.10000000)
		(2.69832402 -0.24376409 0.10000000)
		(2.71508380 -0.24715512 0.10000000)
		(2.73184358 -0.24923624 0.10000000)
		(2.74860335 -0.24999640 0.10000000)
		(2.76536313 -0.24943157 0.10000000)
		(2.78212291 -0.24754476 0.10000000)
		(2.79888268 -0.24434596 0.10000000)
		(2.81564246 -0.23985213 0.10000000)
		(2.83240223 -0.23408708 0.10000000)
		(2.84916201 -0.22708136 0.10000000)
		(2.86592179 -0.21887212 0.10000000)
		(2.88268156 -0.20950285 0.10000000)
		(2.89944134 -0.19902321 0.10000000)
		(2.91620112 -0.18748875 0.10000000)
		(2.93296089 -0.17496060 0.10000000)
		(2.95166480 -0.16381708 0.10000000)
		(2.97036872 -0.15384656 0.10000000)
		(2.98907263 -0.14504905 0.10000000)
		(3.00777654 -0.13742453 0.10000000)
		(3.02648045 -0.13097302 0.10000000)
		(3.04518436 -0.12569451 0.10000000)
		(3.06388827 -0.12158901 0.10000000)
		(3.08259218 -0.11865650 0.10000000)
		(3.10129609 -0.11689700 0.10000000)
		(3.12000000 -0.11631050 0.10000000)
		(3.14000000 -0.11631050 0.10000000)
		(3.16000000 -0.11631050 0.10000000)
		(3.18000000 -0.11631050 0.10000000)
		(3.20000000 -0.11631050 0.10000000)
		(3.22000000 -0.11631050 0.10000000)
		(3.24000000 -0.11631050 0.10000000)
		(3.26000000 -0.11631050 0.10000000)
		(3.28000000 -0.11631050 0.10000000)
		(3.30000000 -0.11631050 0.10000000)
		(3.32000000 -0.11631050 0.10000000)
		(3.34000000 -0.11631050 0.10000000)
		(3.36000000 -0.11631050 0.10000000)
		(3.38000000 -0.11631050 0.10000000)
		(3.40000000 -0.11631050 0.10000000)
		(3.42000000 -0.11631050 0.10000000)
		(3.44000000 -0.11631050 0.10000000)
		(3.46000000 -0.11631050 0.10000000)
		(3.48000000 -0.11631050 0.10000000)
		(3.50000000 -0.11631050 0.10000000)
		(3.52000000 -0.11631050 0.10000000)
		(3.54000000 -0.11631050 0.10000000)
		(3.56000000 -0.11631050 0.10000000)
		(3.58000000 -0.11631050 0.10000000)
		(3.60000000 -0.11631050 0.10000000)
		(3.62000000 -0.11631050 0.10000000)
		(3.64000000 -0.11631050 0.10000000)
		(3.66000000 -0.11631050 0.10000000)
		(3.68000000 -0.11631050 0.10000000)
		(3.70000000 -0.11631050 0.10000000)
		(3.72000000 -0.11631050 0.10000000)
		(3.74000000 -0.11631050 0.10000000)
		(3.76000000 -0.11631050 0.10000000)
		(3.78000000 -0.11631050 0.10000000)
		(3.80000000 -0.11631050 0.10000000)
		(3.82000000 -0.11631050 0.10000000)
		(3.84000000 -0.11631050 0.10000000)
		(3.86000000 -0.11631050 0.10000000)
		(3.88000000 -0.11631050 0.10000000)
		(3.90000000 -0.11631050 0.10000000)
		(3.92000000 -0.11631050 0.10000000)
		(3.94000000 -0.11631050 0.10000000)
		(3.96000000 -0.11631050 0.10000000)
		(3.98000000 -0.11631050 0.10000000)
		(4.00000000 -0.11631050 0.10000000)
	)
	polyLine 3 2
	(
		(-1.00000000 0.29638185 0.00000000)
		(-0.98000000 0.29316089 0.00000000)
		(-0.96000000 0.28993992 0.00000000)
		(-0.94000000 0.28671896 0.00000000)
		(-0.92000000 0.28349800 0.00000000)
		(-0.90000000 0.28027703 0.00000000)
		(-0.88000000 0.27705607 0.00000000)
		(-0.86000000 0.27383511 0.00000000)
		(-0.84000000 0.27061414 0.00000000)
		(-0.82000000 0.26739318 0.00000000)
		(-0.80000000 0.26417222 0.00000000)
		(-0.78000000 0.26095125 0.00000000)
		(-0.76000000 0.25773029 0.00000000)
		(-0.74000000 0.25450932 0.00000000)
		(-0.72000000 0.25128836 0.00000000)
		(-0.70000000 0.24806740 0.00000000)
		(-0.68000000 0.24484643 0.00000000)
		(-0.66000000 0.24162547 0.00000000)
		(-0.64000000 0.23840451 0.00000000)
		(-0.62000000 0.23518354 0.00000000)
		(-0.60000000 0.23196258 0.00000000)
		(-0.58000000 0.22874162 0.00000000)
		(-0.56000000 0.22552065 0.00000000)
		(-0.54000000 0.22229969 0.00000000)
		(-0.52000000 0.21907873 0.00000000)
		(-0.50000000 0.21585776 0.00000000)
		(-0.48000000 0.21263680 0.00000000)
		(-0.46000000 0.20941584 0.00000000)
		(-0.44000000 0.20619487 0.00000000)
		(-0.42000000 0.20297391 0.00000000)
		(-0.40000000 0.19975295 0.00000000)
		(-0.38000000 0.19653198 0.00000000)
		(-0.36000000 0.19331102 0.00000000)
		(-0.34000000 0.19009005 0.00000000)
		(-0.32000000 0.18686909 0.00000000)
		(-0.30000000 0.18364813 0.00000000)
		(-0.28000000 0.18042716 0.00000000)
		(-0.26000000 0.17720620 0.00000000)
		(-0.24000000 0.17398524 0.00000000)
		(-0.22000000 0.17076427 0.00000000)
		(-0.20000000 0.16754331 0.00000000)
		(-0.18000000 0.16432235 0.00000000)
		(-0.16000000 0.16110138 0.00000000)
		(-0.14000000 0.15788042 0.00000000)
		(-0.12000000 0.15465946 0.00000000)
		(-0.10000000 0.15143849 0.00000000)
		(-0.08162011 0.14841500 0.00000000)
		(-0.06324022 0.14834110 0.00000000)
		(-0.04486034 0.15121680 0.00000000)
		(-0.02648045 0.15704209 0.00000000)
		(-0.00810056 0.16581698 0.00000000)
		(0.01027933 0.17754147 0.00000000)
		(0.02865922 0.19221555 0.00000000)
		(0.04703911 0.20983924 0.00000000)
		(0.06541899 0.23041252 0.00000000)
		(0.08379888 0.25393539 0.00000000)
		(0.10055866 0.28145599 0.00000000)
		(0.11731844 0.31013487 0.00000000)
		(0.13407821 0.33982004 0.00000000)
		(0.15083799 0.37035417 0.00000000)
		(0.16759777 0.40157542 0.00000000)
		(0.18435754 0.43331831 0.00000000)
		(0.20111732 0.46541463 0.00000000)
		(0.21787709 0.49769424 0.00000000)
		(0.23463687 0.52998608 0.00000000)
		(0.25139665 0.56211899 0.00000000)
		(0.26815642 0.59392266 0.00000000)
		(0.28491620 0.62522855 0.00000000)
		(0.30167598 0.65587073 0.00000000)
		(0.31843575 0.68568679 0.00000000)
		(0.33519553 0.71451870 0.00000000)
		(0.35195531 0.74221367 0.00000000)
		(0.36871508 0.76862491 0.00000000)
		(0.38547486 0.79361243 0.00000000)
		(0.40223464 0.81704380 0.00000000)
		(0.41899441 0.83879484 0.00000000)
		(0.43575419 0.85875027 0.00000000)
		(0.45251397 0.87680432 0.00000000)
		(0.46927374 0.89286130 0.00000000)
		(0.48603352 0.90683612 0.00000000)
		(0.50279330 0.91865470 0.00000000)
		(0.51955307 0.92825441 0.00000000)
		(0.53631285 0.93558437 0.00000000)
		(0.55307263 0.94060573 0.00000000)
		(0.56983240 0.94329188 0.00000000)
		(0.58659218 0.94362858 0.00000000)
		(0.60335196 0.94161405 0.00000000)
		(0.62011173 0.93725896 0.00000000)
		(0.63687151 0.93058639 0.00000000)
		(0.65363128 0.92163172 0.00000000)
		(0.67039106 0.91044239 0.00000000)
		(0.68715084 0.89707772 0.00000000)
		(0.70391061 0.88160853 0.00000000)
		(0.72067039 0.86411682 0.00000000)
		(0.73743017 0.84469528 0.00000000)
		(0.75418994 0.82344686 0.00000000)
		(0.77094972 0.80048417 0.00000000)
		(0.78770950 0.77592891 0.00000000)
		(0.80446927 0.74991123 0.00000000)
		(0.82122905 0.72256902 0.00000000)
		(0.83798883 0.69404719 0.00000000)
		(0.85474860 0.66449690 0.00000000)
		(0.87150838 0.63407479 0.00000000)
		(0.88826816 0.60294207 0.00000000)
		(0.90502793 0.57126377 0.00000000)
		(0.92178771 0.53920776 0.00000000)
		(0.93854749 0.50694396 0.00000000)
		(0.95530726 0.47464335 0.00000000)
		(0.97206704 0.44247713 0.00000000)
		(0.98882682 0.41061578 0.00000000)
		(1.00558659 0.37922817 0.00000000)
		(1.02234637 0.34848065 0.00000000)
		(1.03910615 0.31853618 0.00000000)
		(1.05586592 0.28955348 0.00000000)
		(1.07262570 0.26168614 0.00000000)
		(1.08938547 0.23508186 0.00000000)
		(1.10614525 0.20988165 0.00000000)
		(1.12290503 0.18621908 0.00000000)
		(1.13966480 0.16421954 0.00000000)
		(1.15642458 0.14399964 0.00000000)
		(1.17318436 0.12566654 0.00000000)
		(1.18994413 0.10931741 0.00000000)
		(1.20670391 0.09503891 0.00000000)
		(1.22346369 0.08290669 0.00000000)
		(1.24022346 0.07298508 0.00000000)
		(1.25698324 0.06532665 0.00000000)
		(1.27374302 0.05997198 0.00000000)
		(1.29050279 0.05694947 0.00000000)
		(1.30726257 0.05627513 0.00000000)
		(1.32402235 0.05795253 0.00000000)
		(1.34078212 0.06197278 0.00000000)
		(1.35754190 0.06831459 0.00000000)
		(1.37430168 0.07694432 0.00000000)
		(1.39106145 0.08781626 0.00000000)
		(1.40782123 0.10087277 0.00000000)
		(1.42458101 0.11604465 0.00000000)
		(1.44134078 0.13325150 0.00000000)
		(1.45810056 0.15240212 0.00000000)
		(1.47486034 0.17339501 0.00000000)
		(1.49162011 0.19611891 0.00000000)
		(1.50837989 0.22045338 0.00000000)
		(1.52513966 0.24626945 0.00000000)
		(1.54189944 0.27343029 0.00000000)
		(1.55865922 0.30179195 0.00000000)
		(1.57541899 0.33120412 0.00000000)
		(1.59217877 0.36151090 0.00000000)
		(1.60893855 0.39255168 0.00000000)
		(1.62569832 0.42416194 0.00000000)
		(1.64245810 0.45617413 0.00000000)
		(1.65921788 0.48841861 0.00000000)
		(1.67597765 0.52072446 0.00000000)
		(1.69273743 0.55292048 0.00000000)
		(1.70949721 0.58483601 0.00000000)
		(1.72625698 0.61630192 0.00000000)
		(1.74301676 0.64715142 0.00000000)
		(1.75977654 0.67722102 0.00000000)
		(1.77653631 0.70635135 0.00000000)
		(1.79329609 0.73438802 0.00000000)
		(1.81005587 0.76118243 0.00000000)
		(1.82681564 0.78659257 0.00000000)
		(1.84357542 0.81048376 0.00000000)
		(1.86033520 0.83272940 0.00000000)
		(1.87709497 0.85321156 0.00000000)
		(1.89385475 0.87182170 0.00000000)
		(1.91061453 0.88846119 0.00000000)
		(1.92737430 0.90304183 0.00000000)
		(1.94413408 0.91548634 0.00000000)
		(1.96089385 0.92572878 0.00000000)
		(1.97765363 0.93371485 0.00000000)
		(1.99441341 0.93940223 0.00000000)
		(2.01117318 0.94276078 0.00000000)
		(2.02793296 0.94377269 0.00000000)
		(2.04469274 0.94243260 0.00000000)
		(2.06145251 0.93874762 0.00000000)
		(2.07821229 0.93273728 0.00000000)
		(2.09497207 0.92443342 0.00000000)
		(2.11173184 0.91388007 0.00000000)
		(2.12849162 0.90113315 0.00000000)
		(2.14525140 0.88626022 0.00000000)
		(2.16201117 0.86934011 0.00000000)
		(2.17877095 0.85046249 0.00000000)
		(2.19553073 0.82972743 0.00000000)
		(2.21229050 0.80724480 0.00000000)
		(2.22905028 0.78313378 0.00000000)
		(2.24581006 0.75752215 0.00000000)
		(2.26256983 0.73054565 0.00000000)
		(2.27932961 0.70234725 0.00000000)
		(2.29608939 0.67307642 0.00000000)
		(2.31284916 0.64288827 0.00000000)
		(2.32960894 0.61194282 0.00000000)
		(2.34636872 0.58040407 0.00000000)
		(2.36312849 0.54843918 0.00000000)
		(2.37988827 0.51621757 0.00000000)
		(2.39664804 0.48391000 0.00000000)
		(2.41340782 0.45168770 0.00000000)
		(2.43016760 0.41972146 0.00000000)
		(2.44692737 0.38818070 0.00000000)
		(2.46368715 0.35723258 0.00000000)