/*--------------------------------*- C++ -*----------------------------------*\\
/*--------------------------------*- C++ -*----------------------------------*\\
| =========                 |                                                 |
| \\\\      /  F ield         | OpenFOAM: The Open Source CFD Toolbox           |
|  \\\\    /   O peration     | Version:  v2012                                 |
|   \\\\  /    A nd           | Website:  www.openfoam.com                      |
|    \\\\/     M anipulation  |                                                 |
\\*---------------------------------------------------------------------------*/
FoamFile
{
    version     2.0;
    format      ascii;
    class       dictionary;
    object      blockMeshDict;
}
// * * * * * * * * * * * * * * * * * * * * * * * * * * * * * * * * * * * * * //

scale   0.01;

xmin -1;
xmax 5;
ymin 0;
ymax 0.5;
zmin 0;
zmax 0.1;

vertices
(
    (-1.00000000 -0.22286017 0.00000000)
    (4.00000000 0.16532162 0.00000000)
    (4.00000000 0.66532162 0.00000000)
    (-1.00000000 0.27713983 0.00000000)
    (-1.00000000 -0.22286017 0.10000000)
    (4.00000000 0.16532162 0.10000000)
    (4.00000000 0.66532162 0.10000000)
    (-1.00000000 0.27713983 0.10000000)
);

blocks
(
    hex (0 1 2 3 4 5 6 7) (200 20 1) simpleGrading (1 1 1)
);

edges
(
	polyLine 0 1
	(
		(-1.00000000 -0.22286017 0.00000000)
		(-0.98000000 -0.22286017 0.00000000)
		(-0.96000000 -0.22286017 0.00000000)
		(-0.94000000 -0.22286017 0.00000000)
		(-0.92000000 -0.22286017 0.00000000)
		(-0.90000000 -0.22286017 0.00000000)
		(-0.88000000 -0.22286017 0.00000000)
		(-0.86000000 -0.22286017 0.00000000)
		(-0.84000000 -0.22286017 0.00000000)
		(-0.82000000 -0.22286017 0.00000000)
		(-0.80000000 -0.22286017 0.00000000)
		(-0.78000000 -0.22286017 0.00000000)
		(-0.76000000 -0.22286017 0.00000000)
		(-0.74000000 -0.22286017 0.00000000)
		(-0.72000000 -0.22286017 0.00000000)
		(-0.70000000 -0.22286017 0.00000000)
		(-0.68000000 -0.22286017 0.00000000)
		(-0.66000000 -0.22286017 0.00000000)
		(-0.64000000 -0.22286017 0.00000000)
		(-0.62000000 -0.22286017 0.00000000)
		(-0.60000000 -0.22286017 0.00000000)
		(-0.58000000 -0.22286017 0.00000000)
		(-0.56000000 -0.22286017 0.00000000)
		(-0.54000000 -0.22286017 0.00000000)
		(-0.52000000 -0.22286017 0.00000000)
		(-0.50000000 -0.22286017 0.00000000)
		(-0.48000000 -0.22286017 0.00000000)
		(-0.46000000 -0.22286017 0.00000000)
		(-0.44000000 -0.22286017 0.00000000)
		(-0.42000000 -0.22286017 0.00000000)
		(-0.40000000 -0.22286017 0.00000000)
		(-0.38000000 -0.22286017 0.00000000)
		(-0.36000000 -0.22286017 0.00000000)
		(-0.34000000 -0.22286017 0.00000000)
		(-0.32000000 -0.22286017 0.00000000)
		(-0.30000000 -0.22286017 0.00000000)
		(-0.28000000 -0.22286017 0.00000000)
		(-0.26000000 -0.22286017 0.00000000)
		(-0.24000000 -0.22286017 0.00000000)
		(-0.22000000 -0.22286017 0.00000000)
		(-0.20000000 -0.22286017 0.00000000)
		(-0.18000000 -0.22286017 0.00000000)
		(-0.16000000 -0.22286017 0.00000000)
		(-0.14000000 -0.22286017 0.00000000)
		(-0.12000000 -0.22286017 0.00000000)
		(-0.10000000 -0.22286017 0.00000000)
		(-0.08162011 -0.22313153 0.00000000)
		(-0.06324022 -0.22394562 0.00000000)
		(-0.04486034 -0.22530244 0.00000000)
		(-0.02648045 -0.22720198 0.00000000)
		(-0.00810056 -0.22964424 0.00000000)
		(0.01027933 -0.23262924 0.00000000)
		(0.02865922 -0.23615695 0.00000000)
		(0.04703911 -0.24022740 0.00000000)
		(0.06541899 -0.24484057 0.00000000)
		(0.08379888 -0.24999646 0.00000000)
		(0.10055866 -0.24874005 0.00000000)
		(0.11731844 -0.24523478 0.00000000)
		(0.13407821 -0.23951233 0.00000000)
		(0.15083799 -0.23162444 0.00000000)
		(0.16759777 -0.22164244 0.00000000)
		(0.18435754 -0.20965655 0.00000000)
		(0.20111732 -0.19577516 0.00000000)
		(0.21787709 -0.18012376 0.00000000)
		(0.23463687 -0.16284385 0.00000000)
		(0.25139665 -0.14409167 0.00000000)
		(0.26815642 -0.12403676 0.00000000)
		(0.28491620 -0.10286042 0.00000000)
		(0.30167598 -0.08075412 0.00000000)
		(0.31843575 -0.05791772 0.00000000)
		(0.33519553 -0.03455769 0.00000000)
		(0.35195531 -0.01088521 0.00000000)
		(0.36871508 0.01288567 0.00000000)
		(0.38547486 0.03654006 0.00000000)
		(0.40223464 0.05986408 0.00000000)
		(0.41899441 0.08264688 0.00000000)
		(0.43575419 0.10468246 0.00000000)
		(0.45251397 0.12577160 0.00000000)
		(0.46927374 0.14572364 0.00000000)
		(0.48603352 0.16435819 0.00000000)
		(0.50279330 0.18150678 0.00000000)
		(0.51955307 0.19701435 0.00000000)
		(0.53631285 0.21074071 0.00000000)
		(0.55307263 0.22256177 0.00000000)
		(0.56983240 0.23237063 0.00000000)
		(0.58659218 0.24007863 0.00000000)
		(0.60335196 0.24561607 0.00000000)
		(0.62011173 0.24893288 0.00000000)
		(0.63687151 0.24999909 0.00000000)
		(0.65363128 0.24880506 0.00000000)
		(0.67039106 0.24536157 0.00000000)
		(0.68715084 0.23969975 0.00000000)
		(0.70391061 0.23187081 0.00000000)
		(0.72067039 0.22194552 0.00000000)
		(0.73743017 0.21001361 0.00000000)
		(0.75418994 0.19618297 0.00000000)
		(0.77094972 0.18057863 0.00000000)
		(0.78770950 0.16334167 0.00000000)
		(0.80446927 0.14462794 0.00000000)
		(0.82122905 0.12460662 0.00000000)
		(0.83798883 0.10345873 0.00000000)
		(0.85474860 0.08137547 0.00000000)
		(0.87150838 0.05855649 0.00000000)
		(0.88826816 0.03520810 0.00000000)
		(0.90502793 0.01154139 0.00000000)
		(0.92178771 -0.01222967 0.00000000)
		(0.93854749 -0.03589015 0.00000000)
		(0.95530726 -0.05922615 0.00000000)
		(0.97206704 -0.08202669 0.00000000)
		(0.98882682 -0.10408562 0.00000000)
		(1.00558659 -0.12520351 0.00000000)
		(1.02234637 -0.14518943 0.00000000)
		(1.03910615 -0.16386269 0.00000000)
		(1.05586592 -0.18105447 0.00000000)
		(1.07262570 -0.19660932 0.00000000)
		(1.08938547 -0.21038663 0.00000000)
		(1.10614525 -0.22226182 0.00000000)
		(1.12290503 -0.23212754 0.00000000)
		(1.13966480 -0.23989459 0.00000000)
		(1.15642458 -0.24549275 0.00000000)
		(1.17318436 -0.24887140 0.00000000)
		(1.18994413 -0.25000000 0.00000000)
		(1.20670391 -0.24886834 0.00000000)
		(1.22346369 -0.24548666 0.00000000)
		(1.24022346 -0.23988552 0.00000000)
		(1.25698324 -0.23211558 0.00000000)
		(1.27374302 -0.22224707 0.00000000)
		(1.29050279 -0.21036922 0.00000000)
		(1.30726257 -0.19658942 0.00000000)
		(1.32402235 -0.18103225 0.00000000)
		(1.34078212 -0.16383836 0.00000000)
		(1.35754190 -0.14516320 0.00000000)
		(1.37430168 -0.12517562 0.00000000)
		(1.39106145 -0.10405632 0.00000000)
		(1.40782123 -0.08199625 0.00000000)
		(1.42458101 -0.05919485 0.00000000)
		(1.44134078 -0.03585826 0.00000000)
		(1.45810056 -0.01219748 0.00000000)
		(1.47486034 0.01157357 0.00000000)
		(1.49162011 0.03524000 0.00000000)
		(1.50837989 0.05858781 0.00000000)
		(1.52513966 0.08140593 0.00000000)
		(1.54189944 0.10348806 0.00000000)
		(1.55865922 0.12463455 0.00000000)
		(1.57541899 0.14465422 0.00000000)
		(1.59217877 0.16336606 0.00000000)
		(1.60893855 0.18060091 0.00000000)
		(1.62569832 0.19620294 0.00000000)
		(1.64245810 0.21003109 0.00000000)
		(1.65921788 0.22196035 0.00000000)
		(1.67597765 0.23188286 0.00000000)
		(1.69273743 0.23970891 0.00000000)
		(1.70949721 0.24536774 0.00000000)
		(1.72625698 0.24880820 0.00000000)
		(1.74301676 0.24999918 0.00000000)
		(1.75977654 0.24892991 0.00000000)
		(1.77653631 0.24561006 0.00000000)
		(1.79329609 0.24006964 0.00000000)
		(1.81005587 0.23235874 0.00000000)
		(1.82681564 0.22254709 0.00000000)
		(1.84357542 0.21072338 0.00000000)
		(1.86033520 0.19699451 0.00000000)
		(1.87709497 0.18148462 0.00000000)
		(1.89385475 0.16433391 0.00000000)
		(1.91061453 0.14569746 0.00000000)
		(1.92737430 0.12574376 0.00000000)
		(1.94413408 0.10465320 0.00000000)
		(1.96089385 0.08261647 0.00000000)
		(1.97765363 0.05983280 0.00000000)
		(1.99441341 0.03650818 0.00000000)
		(2.01117318 0.01285349 0.00000000)
		(2.02793296 -0.01091740 0.00000000)
		(2.04469274 -0.03458960 0.00000000)
		(2.06145251 -0.05794907 0.00000000)
		(2.07821229 -0.08078461 0.00000000)
		(2.09497207 -0.10288979 0.00000000)
		(2.11173184 -0.12406473 0.00000000)
		(2.12849162 -0.14411800 0.00000000)
		(2.14525140 -0.16286830 0.00000000)
		(2.16201117 -0.18014610 0.00000000)
		(2.17877095 -0.19579520 0.00000000)
		(2.19553073 -0.20967410 0.00000000)
		(2.21229050 -0.22165734 0.00000000)
		(2.22905028 -0.23163657 0.00000000)
		(2.24581006 -0.23952156 0.00000000)
		(2.26256983 -0.24524104 0.00000000)
		(2.27932961 -0.24874328 0.00000000)
		(2.29608939 -0.24999663 0.00000000)
		(2.31284916 -0.24898976 0.00000000)
		(2.32960894 -0.24573176 0.00000000)
		(2.34636872 -0.24025209 0.00000000)
		(2.36312849 -0.23260030 0.00000000)
		(2.37988827 -0.22284557 0.00000000)
		(2.39664804 -0.21107608 0.00000000)
		(2.41340782 -0.19739825 0.00000000)
		(2.43016760 -0.18193573 0.00000000)
		(2.44692737 -0.16482833 0.00000000)
		(2.46368715 -0.14623072 0.00000000)
		(2.48044693 -0.12631102 0.00000000)
		(2.49720670 -0.10524935 0.00000000)
		(2.51396648 -0.08323611 0.00000000)
		(2.53072626 -0.06047034 0.00000000)
		(2.54748603 -0.03715785 0.00000000)
		(2.56424581 -0.01350941 0.00000000)
		(2.58100559 0.01026116 0.00000000)
		(2.59776536 0.03393896 0.00000000)
		(2.61452514 0.05730992 0.00000000)
		(2.63128492 0.08016274 0.00000000)
		(2.64804469 0.10229080 0.00000000)
		(2.66480447 0.12349406 0.00000000)
		(2.68156425 0.14358079 0.00000000)
		(2.69832402 0.16236942 0.00000000)
		(2.71508380 0.17969005 0.00000000)
		(2.73184358 0.19538610 0.00000000)
		(2.74860335 0.20931567 0.00000000)
		(2.76536313 0.22135280 0.00000000)
		(2.78212291 0.23138868 0.00000000)
		(2.79888268 0.23933257 0.00000000)
		(2.81564246 0.24511264 0.00000000)
		(2.83240223 0.24867665 0.00000000)
		(2.84916201 0.24999236 0.00000000)
		(2.86592179 0.24904789 0.00000000)
		(2.88268156 0.24585177 0.00000000)
		(2.89944134 0.24043289 0.00000000)
		(2.91620112 0.23284026 0.00000000)
		(2.93296089 0.22314251 0.00000000)
		(2.95166480 0.21215654 0.00000000)
		(2.97036872 0.20232699 0.00000000)
		(2.98907263 0.19365386 0.00000000)
		(3.00777654 0.18613714 0.00000000)
		(3.02648045 0.17977684 0.00000000)
		(3.04518436 0.17457296 0.00000000)
		(3.06388827 0.17052550 0.00000000)
		(3.08259218 0.16763445 0.00000000)
		(3.10129609 0.16589983 0.00000000)
		(3.12000000 0.16532162 0.00000000)
		(3.14000000 0.16532162 0.00000000)
		(3.16000000 0.16532162 0.00000000)
		(3.18000000 0.16532162 0.00000000)
		(3.20000000 0.16532162 0.00000000)
		(3.22000000 0.16532162 0.00000000)
		(3.24000000 0.16532162 0.00000000)
		(3.26000000 0.16532162 0.00000000)
		(3.28000000 0.16532162 0.00000000)
		(3.30000000 0.16532162 0.00000000)
		(3.32000000 0.16532162 0.00000000)
		(3.34000000 0.16532162 0.00000000)
		(3.36000000 0.16532162 0.00000000)
		(3.38000000 0.16532162 0.00000000)
		(3.40000000 0.16532162 0.00000000)
		(3.42000000 0.16532162 0.00000000)
		(3.44000000 0.16532162 0.00000000)
		(3.46000000 0.16532162 0.00000000)
		(3.48000000 0.16532162 0.00000000)
		(3.50000000 0.16532162 0.00000000)
		(3.52000000 0.16532162 0.00000000)
		(3.54000000 0.16532162 0.00000000)
		(3.56000000 0.16532162 0.00000000)
		(3.58000000 0.16532162 0.00000000)
		(3.60000000 0.16532162 0.00000000)
		(3.62000000 0.16532162 0.00000000)
		(3.64000000 0.16532162 0.00000000)
		(3.66000000 0.16532162 0.00000000)
		(3.68000000 0.16532162 0.00000000)
		(3.70000000 0.16532162 0.00000000)
		(3.72000000 0.16532162 0.00000000)
		(3.74000000 0.16532162 0.00000000)
		(3.76000000 0.16532162 0.00000000)
		(3.78000000 0.16532162 0.00000000)
		(3.80000000 0.16532162 0.00000000)
		(3.82000000 0.16532162 0.00000000)
		(3.84000000 0.16532162 0.00000000)
		(3.86000000 0.16532162 0.00000000)
		(3.88000000 0.16532162 0.00000000)
		(3.90000000 0.16532162 0.00000000)
		(3.92000000 0.16532162 0.00000000)
		(3.94000000 0.16532162 0.00000000)
		(3.96000000 0.16532162 0.00000000)
		(3.98000000 0.16532162 0.00000000)
		(4.00000000 0.16532162 0.00000000)
	)
	polyLine 4 5
	(
		(-1.00000000 -0.22286017 0.10000000)
		(-0.98000000 -0.22286017 0.10000000)
		(-0.96000000 -0.22286017 0.10000000)
		(-0.94000000 -0.22286017 0.10000000)
		(-0.92000000 -0.22286017 0.10000000)
		(-0.90000000 -0.22286017 0.10000000)
		(-0.88000000 -0.22286017 0.10000000)
		(-0.86000000 -0.22286017 0.10000000)
		(-0.84000000 -0.22286017 0.10000000)
		(-0.82000000 -0.22286017 0.10000000)
		(-0.80000000 -0.22286017 0.10000000)
		(-0.78000000 -0.22286017 0.10000000)
		(-0.76000000 -0.22286017 0.10000000)
		(-0.74000000 -0.22286017 0.10000000)
		(-0.72000000 -0.22286017 0.10000000)
		(-0.70000000 -0.22286017 0.10000000)
		(-0.68000000 -0.22286017 0.10000000)
		(-0.66000000 -0.22286017 0.10000000)
		(-0.64000000 -0.22286017 0.10000000)
		(-0.62000000 -0.22286017 0.10000000)
		(-0.60000000 -0.22286017 0.10000000)
		(-0.58000000 -0.22286017 0.10000000)
		(-0.56000000 -0.22286017 0.10000000)
		(-0.54000000 -0.22286017 0.10000000)
		(-0.52000000 -0.22286017 0.10000000)
		(-0.50000000 -0.22286017 0.10000000)
		(-0.48000000 -0.22286017 0.10000000)
		(-0.46000000 -0.22286017 0.10000000)
		(-0.44000000 -0.22286017 0.10000000)
		(-0.42000000 -0.22286017 0.10000000)
		(-0.40000000 -0.22286017 0.10000000)
		(-0.38000000 -0.22286017 0.10000000)
		(-0.36000000 -0.22286017 0.10000000)
		(-0.34000000 -0.22286017 0.10000000)
		(-0.32000000 -0.22286017 0.10000000)
		(-0.30000000 -0.22286017 0.10000000)
		(-0.28000000 -0.22286017 0.10000000)
		(-0.26000000 -0.22286017 0.10000000)
		(-0.24000000 -0.22286017 0.10000000)
		(-0.22000000 -0.22286017 0.10000000)
		(-0.20000000 -0.22286017 0.10000000)
		(-0.18000000 -0.22286017 0.10000000)
		(-0.16000000 -0.22286017 0.10000000)
		(-0.14000000 -0.22286017 0.10000000)
		(-0.12000000 -0.22286017 0.10000000)
		(-0.10000000 -0.22286017 0.10000000)
		(-0.08162011 -0.22313153 0.10000000)
		(-0.06324022 -0.22394562 0.10000000)
		(-0.04486034 -0.22530244 0.10000000)
		(-0.02648045 -0.22720198 0.10000000)
		(-0.00810056 -0.22964424 0.10000000)
		(0.01027933 -0.23262924 0.10000000)
		(0.02865922 -0.23615695 0.10000000)
		(0.04703911 -0.24022740 0.10000000)
		(0.06541899 -0.24484057 0.10000000)
		(0.08379888 -0.24999646 0.10000000)
		(0.10055866 -0.24874005 0.10000000)
		(0.11731844 -0.24523478 0.10000000)
		(0.13407821 -0.23951233 0.10000000)
		(0.15083799 -0.23162444 0.10000000)
		(0.16759777 -0.22164244 0.10000000)
		(0.18435754 -0.20965655 0.10000000)
		(0.20111732 -0.19577516 0.10000000)
		(0.21787709 -0.18012376 0.10000000)
		(0.23463687 -0.16284385 0.10000000)
		(0.25139665 -0.14409167 0.10000000)
		(0.26815642 -0.12403676 0.10000000)
		(0.28491620 -0.10286042 0.10000000)
		(0.30167598 -0.08075412 0.10000000)
		(0.31843575 -0.05791772 0.10000000)
		(0.33519553 -0.03455769 0.10000000)
		(0.35195531 -0.01088521 0.10000000)
		(0.36871508 0.01288567 0.10000000)
		(0.38547486 0.03654006 0.10000000)
		(0.40223464 0.05986408 0.10000000)
		(0.41899441 0.08264688 0.10000000)
		(0.43575419 0.10468246 0.10000000)
		(0.45251397 0.12577160 0.10000000)
		(0.46927374 0.14572364 0.10000000)
		(0.48603352 0.16435819 0.10000000)
		(0.50279330 0.18150678 0.10000000)
		(0.51955307 0.19701435 0.10000000)
		(0.53631285 0.21074071 0.10000000)
		(0.55307263 0.22256177 0.10000000)
		(0.56983240 0.23237063 0.10000000)
		(0.58659218 0.24007863 0.10000000)
		(0.60335196 0.24561607 0.10000000)
		(0.62011173 0.24893288 0.10000000)
		(0.63687151 0.24999909 0.10000000)
		(0.65363128 0.24880506 0.10000000)
		(0.67039106 0.24536157 0.10000000)
		(0.68715084 0.23969975 0.10000000)
		(0.70391061 0.23187081 0.10000000)
		(0.72067039 0.22194552 0.10000000)
		(0.73743017 0.21001361 0.10000000)
		(0.75418994 0.19618297 0.10000000)
		(0.77094972 0.18057863 0.10000000)
		(0.78770950 0.16334167 0.10000000)
		(0.80446927 0.14462794 0.10000000)
		(0.82122905 0.12460662 0.10000000)
		(0.83798883 0.10345873 0.10000000)
		(0.85474860 0.08137547 0.10000000)
		(0.87150838 0.05855649 0.10000000)
		(0.88826816 0.03520810 0.10000000)
		(0.90502793 0.01154139 0.10000000)
		(0.92178771 -0.01222967 0.10000000)
		(0.93854749 -0.03589015 0.10000000)
		(0.95530726 -0.05922615 0.10000000)
		(0.97206704 -0.08202669 0.10000000)
		(0.98882682 -0.10408562 0.10000000)
		(1.00558659 -0.12520351 0.10000000)
		(1.02234637 -0.14518943 0.10000000)
		(1.03910615 -0.16386269 0.10000000)
		(1.05586592 -0.18105447 0.10000000)
		(1.07262570 -0.19660932 0.10000000)
		(1.08938547 -0.21038663 0.10000000)
		(1.10614525 -0.22226182 0.10000000)
		(1.12290503 -0.23212754 0.10000000)
		(1.13966480 -0.23989459 0.10000000)
		(1.15642458 -0.24549275 0.10000000)
		(1.17318436 -0.24887140 0.10000000)
		(1.18994413 -0.25000000 0.10000000)
		(1.20670391 -0.24886834 0.10000000)
		(1.22346369 -0.24548666 0.10000000)
		(1.24022346 -0.23988552 0.10000000)
		(1.25698324 -0.23211558 0.10000000)
		(1.27374302 -0.22224707 0.10000000)
		(1.29050279 -0.21036922 0.10000000)
		(1.30726257 -0.19658942 0.10000000)
		(1.32402235 -0.18103225 0.10000000)
		(1.34078212 -0.16383836 0.10000000)
		(1.35754190 -0.14516320 0.10000000)
		(1.37430168 -0.12517562 0.10000000)
		(1.39106145 -0.10405632 0.10000000)
		(1.40782123 -0.08199625 0.10000000)
		(1.42458101 -0.05919485 0.10000000)
		(1.44134078 -0.03585826 0.10000000)
		(1.45810056 -0.01219748 0.10000000)
		(1.47486034 0.01157357 0.10000000)
		(1.49162011 0.03524000 0.10000000)
		(1.50837989 0.05858781 0.10000000)
		(1.52513966 0.08140593 0.10000000)
		(1.54189944 0.10348806 0.10000000)
		(1.55865922 0.12463455 0.10000000)
		(1.57541899 0.14465422 0.10000000)
		(1.59217877 0.16336606 0.10000000)
		(1.60893855 0.18060091 0.10000000)
		(1.62569832 0.19620294 0.10000000)
		(1.64245810 0.21003109 0.10000000)
		(1.65921788 0.22196035 0.10000000)
		(1.67597765 0.23188286 0.10000000)
		(1.69273743 0.23970891 0.10000000)
		(1.70949721 0.24536774 0.10000000)
		(1.72625698 0.24880820 0.10000000)
		(1.74301676 0.24999918 0.10000000)
		(1.75977654 0.24892991 0.10000000)
		(1.77653631 0.24561006 0.10000000)
		(1.79329609 0.24006964 0.10000000)
		(1.81005587 0.23235874 0.10000000)
		(1.82681564 0.22254709 0.10000000)
		(1.84357542 0.21072338 0.10000000)
		(1.86033520 0.19699451 0.10000000)
		(1.87709497 0.18148462 0.10000000)
		(1.89385475 0.16433391 0.10000000)
		(1.91061453 0.14569746 0.10000000)
		(1.92737430 0.12574376 0.10000000)
		(1.94413408 0.10465320 0.10000000)
		(1.96089385 0.08261647 0.10000000)
		(1.97765363 0.05983280 0.10000000)
		(1.99441341 0.03650818 0.10000000)
		(2.01117318 0.01285349 0.10000000)
		(2.02793296 -0.01091740 0.10000000)
		(2.04469274 -0.03458960 0.10000000)
		(2.06145251 -0.05794907 0.10000000)
		(2.07821229 -0.08078461 0.10000000)
		(2.09497207 -0.10288979 0.10000000)
		(2.11173184 -0.12406473 0.10000000)
		(2.12849162 -0.14411800 0.10000000)
		(2.14525140 -0.16286830 0.10000000)
		(2.16201117 -0.18014610 0.10000000)
		(2.17877095 -0.19579520 0.10000000)
		(2.19553073 -0.20967410 0.10000000)
		(2.21229050 -0.22165734 0.10000000)
		(2.22905028 -0.23163657 0.10000000)
		(2.24581006 -0.23952156 0.10000000)
		(2.26256983 -0.24524104 0.10000000)
		(2.27932961 -0.24874328 0.10000000)
		(2.29608939 -0.24999663 0.10000000)
		(2.31284916 -0.24898976 0.10000000)
		(2.32960894 -0.24573176 0.10000000)
		(2.34636872 -0.24025209 0.10000000)
		(2.36312849 -0.23260030 0.10000000)
		(2.37988827 -0.22284557 0.10000000)
		(2.39664804 -0.21107608 0.10000000)
		(2.41340782 -0.19739825 0.10000000)
		(2.43016760 -0.18193573 0.10000000)
		(2.44692737 -0.16482833 0.10000000)
		(2.46368715 -0.14623072 0.10000000)
		(2.48044693 -0.12631102 0.10000000)
		(2.49720670 -0.10524935 0.10000000)
		(2.51396648 -0.08323611 0.10000000)
		(2.53072626 -0.06047034 0.10000000)
		(2.54748603 -0.03715785 0.10000000)
		(2.56424581 -0.01350941 0.10000000)
		(2.58100559 0.01026116 0.10000000)
		(2.59776536 0.03393896 0.10000000)
		(2.61452514 0.05730992 0.10000000)
		(2.63128492 0.08016274 0.10000000)
		(2.64804469 0.10229080 0.10000000)
		(2.66480447 0.12349406 0.10000000)
		(2.68156425 0.14358079 0.10000000)
		(2.69832402 0.16236942 0.10000000)
		(2.71508380 0.17969005 0.10000000)
		(2.73184358 0.19538610 0.10000000)
		(2.74860335 0.20931567 0.10000000)
		(2.76536313 0.22135280 0.10000000)
		(2.78212291 0.23138868 0.10000000)
		(2.79888268 0.23933257 0.10000000)
		(2.81564246 0.24511264 0.10000000)
		(2.83240223 0.24867665 0.10000000)
		(2.84916201 0.24999236 0.10000000)
		(2.86592179 0.24904789 0.10000000)
		(2.88268156 0.24585177 0.10000000)
		(2.89944134 0.24043289 0.10000000)
		(2.91620112 0.23284026 0.10000000)
		(2.93296089 0.22314251 0.10000000)
		(2.95166480 0.21215654 0.10000000)
		(2.97036872 0.20232699 0.10000000)
		(2.98907263 0.19365386 0.10000000)
		(3.00777654 0.18613714 0.10000000)
		(3.02648045 0.17977684 0.10000000)
		(3.04518436 0.17457296 0.10000000)
		(3.06388827 0.17052550 0.10000000)
		(3.08259218 0.16763445 0.10000000)
		(3.10129609 0.16589983 0.10000000)
		(3.12000000 0.16532162 0.10000000)
		(3.14000000 0.16532162 0.10000000)
		(3.16000000 0.16532162 0.10000000)
		(3.18000000 0.16532162 0.10000000)
		(3.20000000 0.16532162 0.10000000)
		(3.22000000 0.16532162 0.10000000)
		(3.24000000 0.16532162 0.10000000)
		(3.26000000 0.16532162 0.10000000)
		(3.28000000 0.16532162 0.10000000)
		(3.30000000 0.16532162 0.10000000)
		(3.32000000 0.16532162 0.10000000)
		(3.34000000 0.16532162 0.10000000)
		(3.36000000 0.16532162 0.10000000)
		(3.38000000 0.16532162 0.10000000)
		(3.40000000 0.16532162 0.10000000)
		(3.42000000 0.16532162 0.10000000)
		(3.44000000 0.16532162 0.10000000)
		(3.46000000 0.16532162 0.10000000)
		(3.48000000 0.16532162 0.10000000)
		(3.50000000 0.16532162 0.10000000)
		(3.52000000 0.16532162 0.10000000)
		(3.54000000 0.16532162 0.10000000)
		(3.56000000 0.16532162 0.10000000)
		(3.58000000 0.16532162 0.10000000)
		(3.60000000 0.16532162 0.10000000)
		(3.62000000 0.16532162 0.10000000)
		(3.64000000 0.16532162 0.10000000)
		(3.66000000 0.16532162 0.10000000)
		(3.68000000 0.16532162 0.10000000)
		(3.70000000 0.16532162 0.10000000)
		(3.72000000 0.16532162 0.10000000)
		(3.74000000 0.16532162 0.10000000)
		(3.76000000 0.16532162 0.10000000)
		(3.78000000 0.16532162 0.10000000)
		(3.80000000 0.16532162 0.10000000)
		(3.82000000 0.16532162 0.10000000)
		(3.84000000 0.16532162 0.10000000)
		(3.86000000 0.16532162 0.10000000)
		(3.88000000 0.16532162 0.10000000)
		(3.90000000 0.16532162 0.10000000)
		(3.92000000 0.16532162 0.10000000)
		(3.94000000 0.16532162 0.10000000)
		(3.96000000 0.16532162 0.10000000)
		(3.98000000 0.16532162 0.10000000)
		(4.00000000 0.16532162 0.10000000)
	)
	polyLine 3 2
	(
		(-1.00000000 0.27713983 0.00000000)
		(-0.98000000 0.27628448 0.00000000)
		(-0.96000000 0.27542914 0.00000000)
		(-0.94000000 0.27457379 0.00000000)
		(-0.92000000 0.27371845 0.00000000)
		(-0.90000000 0.27286310 0.00000000)
		(-0.88000000 0.27200776 0.00000000)
		(-0.86000000 0.27115241 0.00000000)
		(-0.84000000 0.27029707 0.00000000)
		(-0.82000000 0.26944172 0.00000000)
		(-0.80000000 0.26858637 0.00000000)
		(-0.78000000 0.26773103 0.00000000)
		(-0.76000000 0.26687568 0.00000000)
		(-0.74000000 0.26602034 0.00000000)
		(-0.72000000 0.26516499 0.00000000)
		(-0.70000000 0.26430965 0.00000000)
		(-0.68000000 0.26345430 0.00000000)
		(-0.66000000 0.26259896 0.00000000)
		(-0.64000000 0.26174361 0.00000000)
		(-0.62000000 0.26088827 0.00000000)
		(-0.60000000 0.26003292 0.00000000)
		(-0.58000000 0.25917758 0.00000000)
		(-0.56000000 0.25832223 0.00000000)
		(-0.54000000 0.25746688 0.00000000)
		(-0.52000000 0.25661154 0.00000000)
		(-0.50000000 0.25575619 0.00000000)
		(-0.48000000 0.25490085 0.00000000)
		(-0.46000000 0.25404550 0.00000000)
		(-0.44000000 0.25319016 0.00000000)
		(-0.42000000 0.25233481 0.00000000)
		(-0.40000000 0.25147947 0.00000000)
		(-0.38000000 0.25062412 0.00000000)
		(-0.36000000 0.24976878 0.00000000)
		(-0.34000000 0.24891343 0.00000000)
		(-0.32000000 0.24805809 0.00000000)
		(-0.30000000 0.24720274 0.00000000)
		(-0.28000000 0.24634739 0.00000000)
		(-0.26000000 0.24549205 0.00000000)
		(-0.24000000 0.24463670 0.00000000)
		(-0.22000000 0.24378136 0.00000000)
		(-0.20000000 0.24292601 0.00000000)
		(-0.18000000 0.24207067 0.00000000)
		(-0.16000000 0.24121532 0.00000000)
		(-0.14000000 0.24035998 0.00000000)
		(-0.12000000 0.23950463 0.00000000)
		(-0.10000000 0.23864929 0.00000000)
		(-0.08162011 0.23826737 0.00000000)
		(-0.06324022 0.23717786 0.00000000)
		(-0.04486034 0.23538076 0.00000000)
		(-0.02648045 0.23287605 0.00000000)
		(-0.00810056 0.22966375 0.00000000)
		(0.01027933 0.22574385 0.00000000)
		(0.02865922 0.22111635 0.00000000)
		(0.04703911 0.21578125 0.00000000)
		(0.06541899 0.20973855 0.00000000)
		(0.08379888 0.20298826 0.00000000)
		(0.10055866 0.20448095 0.00000000)
		(0.11731844 0.20864544 0.00000000)
		(0.13407821 0.21544408 0.00000000)
		(0.15083799 0.22481539 0.00000000)
		(0.16759777 0.23667465 0.00000000)
		(0.18435754 0.25091465 0.00000000)
		(0.20111732 0.26740663 0.00000000)
		(0.21787709 0.28600149 0.00000000)
		(0.23463687 0.30653112 0.00000000)
		(0.25139665 0.32880990 0.00000000)
		(0.26815642 0.35263642 0.00000000)
		(0.28491620 0.37779526 0.00000000)
		(0.30167598 0.40405895 0.00000000)
		(0.31843575 0.43119005 0.00000000)
		(0.33519553 0.45894327 0.00000000)
		(0.35195531 0.48706767 0.00000000)
		(0.36871508 0.51530900 0.00000000)
		(0.38547486 0.54341192 0.00000000)
		(0.40223464 0.57112235 0.00000000)
		(0.41899441 0.59818976 0.00000000)
		(0.43575419 0.62436944 0.00000000)
		(0.45251397 0.64942469 0.00000000)
		(0.46927374 0.67312898 0.00000000)
		(0.48603352 0.69526801 0.00000000)
		(0.50279330 0.71564162 0.00000000)
		(0.51955307 0.73406561 0.00000000)
		(0.53631285 0.75037341 0.00000000)
		(0.55307263 0.76441757 0.00000000)
		(0.56983240 0.77607113 0.00000000)
		(0.58659218 0.78522872 0.00000000)
		(0.60335196 0.79180755 0.00000000)
		(0.62011173 0.79574814 0.00000000)
		(0.63687151 0.79701487 0.00000000)
		(0.65363128 0.79559627 0.00000000)
		(0.67039106 0.79150519 0.00000000)
		(0.68715084 0.78477859 0.00000000)
		(0.70391061 0.77547731 0.00000000)
		(0.72067039 0.76368543 0.00000000)
		(0.73743017 0.74950956 0.00000000)
		(0.75418994 0.73307787 0.00000000)
		(0.77094972 0.71453892 0.00000000)
		(0.78770950 0.69406032 0.00000000)
		(0.80446927 0.67182721 0.00000000)
		(0.82122905 0.64804061 0.00000000)
		(0.83798883 0.62291557 0.00000000)
		(0.85474860 0.59667924 0.00000000)
		(0.87150838 0.56956884 0.00000000)
		(0.88826816 0.54182946 0.00000000)
		(0.90502793 0.51371191 0.00000000)
		(0.92178771 0.48547038 0.00000000)
		(0.93854749 0.45736021 0.00000000)
		(0.95530726 0.42963555 0.00000000)
		(0.97206704 0.40254706 0.00000000)
		(0.98882682 0.37633965 0.00000000)
		(1.00558659 0.35125025 0.00000000)
		(1.02234637 0.32750570 0.00000000)
		(1.03910615 0.30532067 0.00000000)
		(1.05586592 0.28489575 0.00000000)
		(1.07262570 0.26641559 0.00000000)
		(1.08938547 0.25004727 0.00000000)
		(1.10614525 0.23593878 0.00000000)
		(1.12290503 0.22421767 0.00000000)
		(1.13966480 0.21498992 0.00000000)
		(1.15642458 0.20833896 0.00000000)
		(1.17318436 0.20432490 0.00000000)
		(1.18994413 0.20298406 0.00000000)
		(1.20670391 0.20432854 0.00000000)
		(1.22346369 0.20834620 0.00000000)
		(1.24022346 0.21500070 0.00000000)
		(1.25698324 0.22423189 0.00000000)
		(1.27374302 0.23595631 0.00000000)
		(1.29050279 0.25006795 0.00000000)
		(1.30726257 0.26643923 0.00000000)
		(1.32402235 0.28492215 0.00000000)
		(1.34078212 0.30534959 0.00000000)
		(1.35754190 0.32753686 0.00000000)
		(1.37430168 0.35128338 0.00000000)
		(1.39106145 0.37637445 0.00000000)
		(1.40782123 0.40258323 0.00000000)
		(1.42458101 0.42967275 0.00000000)
		(1.44134078 0.45739810 0.00000000)
		(1.45810056 0.48550861 0.00000000)
		(1.47486034 0.51375015 0.00000000)
		(1.49162011 0.54186736 0.00000000)
		(1.50837989 0.56960606 0.00000000)
		(1.52513966 0.59671544 0.00000000)
		(1.54189944 0.62295042 0.00000000)
		(1.55865922 0.64807379 0.00000000)
		(1.57541899 0.67185843 0.00000000)
		(1.59217877 0.69408930 0.00000000)
		(1.60893855 0.71456539 0.00000000)
		(1.62569832 0.73310160 0.00000000)
		(1.64245810 0.74953033 0.00000000)
		(1.65921788 0.76370305 0.00000000)
		(1.67597765 0.77549162 0.00000000)
		(1.69273743 0.78478947 0.00000000)
		(1.70949721 0.79151252 0.00000000)
		(1.72625698 0.79560001 0.00000000)
		(1.74301676 0.79701497 0.00000000)
		(1.75977654 0.79574461 0.00000000)
		(1.77653631 0.79180041 0.00000000)
		(1.79329609 0.78521804 0.00000000)
		(1.81005587 0.77605700 0.00000000)
		(1.82681564 0.76440013 0.00000000)
		(1.84357542 0.75035281 0.00000000)
		(1.86033520 0.73404204 0.00000000)
		(1.87709497 0.71561530 0.00000000)
		(1.89385475 0.69523917 0.00000000)
		(1.91061453 0.67309788 0.00000000)
		(1.92737430 0.64939160 0.00000000)
		(1.94413408 0.62433467 0.00000000)
		(1.96089385 0.59815363 0.00000000)
		(1.97765363 0.57108518 0.00000000)
		(1.99441341 0.54337405 0.00000000)
		(2.01117318 0.51527077 0.00000000)
		(2.02793296 0.48702943 0.00000000)
		(2.04469274 0.45890535 0.00000000)
		(2.06145251 0.43115281 0.00000000)
		(2.07821229 0.40402273 0.00000000)
		(2.09497207 0.37776037 0.00000000)
		(2.11173184 0.35260319 0.00000000)
		(2.12849162 0.32877862 0.00000000)
		(2.14525140 0.30650207 0.00000000)
		(2.16201117 0.28597494 0.00000000)
		(2.17877095 0.26738282 0.00000000)
		(2.19553073 0.25089380 0.00000000)
		(2.21229050 0.23665695 0.00000000)
		(2.22905028 0.22480099 0.00000000)
		(2.24581006 0.21543311 0.00000000)
		(2.26256983 0.20863801 0.00000000)
		(2.27932961 0.20447712 0.00000000)
		(2.29608939 0.20298806 0.00000000)
		(2.31284916 0.20418429 0.00000000)
		(2.32960894 0.20805500 0.00000000)
		(2.34636872 0.21456519 0.00000000)
		(2.36312849 0.22365601 0.00000000)
		(2.37988827 0.23524525 0.00000000)
		(2.39664804 0.24922816 0.00000000)
		(2.41340782 0.26547829 0.00000000)
		(2.43016760 0.28384875 0.00000000)
		(2.44692737 0.30417343 0.00000000)
		(2.46368715 0.32626858 0.00000000)
		(2.48044693 0.34993445 0.00000000)
		(2.49720670 0.37495706 0.00000000)
		(2.51396648 0.40111019 0.00000000)