/*--------------------------------*- C++ -*----------------------------------*\\
/*--------------------------------*- C++ -*----------------------------------*\\
| =========                 |                                                 |
| \\\\      /  F ield         | OpenFOAM: The Open Source CFD Toolbox           |
|  \\\\    /   O peration     | Version:  v2012                                 |
|   \\\\  /    A nd           | Website:  www.openfoam.com                      |
|    \\\\/     M anipulation  |                                                 |
\\*---------------------------------------------------------------------------*/
FoamFile
{
    version     2.0;
    format      ascii;
    class       dictionary;
    object      blockMeshDict;
}
// * * * * * * * * * * * * * * * * * * * * * * * * * * * * * * * * * * * * * //

scale   0.01;

xmin -1;
xmax 5;
ymin 0;
ymax 0.5;
zmin 0;
zmax 0.1;

vertices
(
    (-1.00000000 0.08435769 0.00000000)
    (4.00000000 0.15294689 0.00000000)
    (4.00000000 0.65294689 0.00000000)
    (-1.00000000 0.58435769 0.00000000)
    (-1.00000000 0.08435769 0.10000000)
    (4.00000000 0.15294689 0.10000000)
    (4.00000000 0.65294689 0.10000000)
    (-1.00000000 0.58435769 0.10000000)
);

blocks
(
    hex (0 1 2 3 4 5 6 7) (200 20 1) simpleGrading (1 1 1)
);

edges
(
	polyLine 0 1
	(
		(-1.00000000 0.08435769 0.00000000)
		(-0.98000000 0.08435769 0.00000000)
		(-0.96000000 0.08435769 0.00000000)
		(-0.94000000 0.08435769 0.00000000)
		(-0.92000000 0.08435769 0.00000000)
		(-0.90000000 0.08435769 0.00000000)
		(-0.88000000 0.08435769 0.00000000)
		(-0.86000000 0.08435769 0.00000000)
		(-0.84000000 0.08435769 0.00000000)
		(-0.82000000 0.08435769 0.00000000)
		(-0.80000000 0.08435769 0.00000000)
		(-0.78000000 0.08435769 0.00000000)
		(-0.76000000 0.08435769 0.00000000)
		(-0.74000000 0.08435769 0.00000000)
		(-0.72000000 0.08435769 0.00000000)
		(-0.70000000 0.08435769 0.00000000)
		(-0.68000000 0.08435769 0.00000000)
		(-0.66000000 0.08435769 0.00000000)
		(-0.64000000 0.08435769 0.00000000)
		(-0.62000000 0.08435769 0.00000000)
		(-0.60000000 0.08435769 0.00000000)
		(-0.58000000 0.08435769 0.00000000)
		(-0.56000000 0.08435769 0.00000000)
		(-0.54000000 0.08435769 0.00000000)
		(-0.52000000 0.08435769 0.00000000)
		(-0.50000000 0.08435769 0.00000000)
		(-0.48000000 0.08435769 0.00000000)
		(-0.46000000 0.08435769 0.00000000)
		(-0.44000000 0.08435769 0.00000000)
		(-0.42000000 0.08435769 0.00000000)
		(-0.40000000 0.08435769 0.00000000)
		(-0.38000000 0.08435769 0.00000000)
		(-0.36000000 0.08435769 0.00000000)
		(-0.34000000 0.08435769 0.00000000)
		(-0.32000000 0.08435769 0.00000000)
		(-0.30000000 0.08435769 0.00000000)
		(-0.28000000 0.08435769 0.00000000)
		(-0.26000000 0.08435769 0.00000000)
		(-0.24000000 0.08435769 0.00000000)
		(-0.22000000 0.08435769 0.00000000)
		(-0.20000000 0.08435769 0.00000000)
		(-0.18000000 0.08435769 0.00000000)
		(-0.16000000 0.08435769 0.00000000)
		(-0.14000000 0.08435769 0.00000000)
		(-0.12000000 0.08435769 0.00000000)
		(-0.10000000 0.08435769 0.00000000)
		(-0.08162011 0.08522725 0.00000000)
		(-0.06324022 0.08783593 0.00000000)
		(-0.04486034 0.09218373 0.00000000)
		(-0.02648045 0.09827064 0.00000000)
		(-0.00810056 0.10609668 0.00000000)
		(0.01027933 0.11566184 0.00000000)
		(0.02865922 0.12696611 0.00000000)
		(0.04703911 0.14000951 0.00000000)
		(0.06541899 0.15479202 0.00000000)
		(0.08379888 0.17131365 0.00000000)
		(0.10055866 0.18567720 0.00000000)
		(0.11731844 0.19878828 0.00000000)
		(0.13407821 0.21055846 0.00000000)
		(0.15083799 0.22090834 0.00000000)
		(0.16759777 0.22976810 0.00000000)
		(0.18435754 0.23707800 0.00000000)
		(0.20111732 0.24278871 0.00000000)
		(0.21787709 0.24686171 0.00000000)
		(0.23463687 0.24926954 0.00000000)
		(0.25139665 0.24999595 0.00000000)
		(0.26815642 0.24903604 0.00000000)
		(0.28491620 0.24639629 0.00000000)
		(0.30167598 0.24209450 0.00000000)
		(0.31843575 0.23615968 0.00000000)
		(0.33519553 0.22863188 0.00000000)
		(0.35195531 0.21956187 0.00000000)
		(0.36871508 0.20901083 0.00000000)
		(0.38547486 0.19704993 0.00000000)
		(0.40223464 0.18375985 0.00000000)
		(0.41899441 0.16923025 0.00000000)
		(0.43575419 0.15355911 0.00000000)
		(0.45251397 0.13685217 0.00000000)
		(0.46927374 0.11922210 0.00000000)
		(0.48603352 0.10078783 0.00000000)
		(0.50279330 0.08167371 0.00000000)
		(0.51955307 0.06200867 0.00000000)
		(0.53631285 0.04192536 0.00000000)
		(0.55307263 0.02155924 0.00000000)
		(0.56983240 0.00104770 0.00000000)
		(0.58659218 -0.01947091 0.00000000)
		(0.60335196 -0.03985818 0.00000000)
		(0.62011173 -0.05997659 0.00000000)
		(0.63687151 -0.07969043 0.00000000)
		(0.65363128 -0.09886674 0.00000000)
		(0.67039106 -0.11737614 0.00000000)
		(0.68715084 -0.13509381 0.00000000)
		(0.70391061 -0.15190021 0.00000000)
		(0.72067039 -0.16768198 0.00000000)
		(0.73743017 -0.18233268 0.00000000)
		(0.75418994 -0.19575347 0.00000000)
		(0.77094972 -0.20785383 0.00000000)
		(0.78770950 -0.21855213 0.00000000)
		(0.80446927 -0.22777622 0.00000000)
		(0.82122905 -0.23546387 0.00000000)
		(0.83798883 -0.24156322 0.00000000)
		(0.85474860 -0.24603314 0.00000000)
		(0.87150838 -0.24884346 0.00000000)
		(0.88826816 -0.24997525 0.00000000)
		(0.90502793 -0.24942085 0.00000000)
		(0.92178771 -0.24718401 0.00000000)
		(0.93854749 -0.24327982 0.00000000)
		(0.95530726 -0.23773462 0.00000000)
		(0.97206704 -0.23058580 0.00000000)
		(0.98882682 -0.22188159 0.00000000)
		(1.00558659 -0.21168071 0.00000000)
		(1.02234637 -0.20005196 0.00000000)
		(1.03910615 -0.18707378 0.00000000)
		(1.05586592 -0.17283371 0.00000000)
		(1.07262570 -0.15742782 0.00000000)
		(1.08938547 -0.14096001 0.00000000)
		(1.10614525 -0.12354137 0.00000000)
		(1.12290503 -0.10528940 0.00000000)
		(1.13966480 -0.08632722 0.00000000)
		(1.15642458 -0.06678272 0.00000000)
		(1.17318436 -0.04678774 0.00000000)
		(1.18994413 -0.02647717 0.00000000)
		(1.20670391 -0.00598800 0.00000000)
		(1.22346369 0.01454157 0.00000000)
		(1.24022346 0.03497305 0.00000000)
		(1.25698324 0.05516862 0.00000000)
		(1.27374302 0.07499205 0.00000000)
		(1.29050279 0.09430964 0.00000000)
		(1.30726257 0.11299107 0.00000000)
		(1.32402235 0.13091033 0.00000000)
		(1.34078212 0.14794655 0.00000000)
		(1.35754190 0.16398482 0.00000000)
		(1.37430168 0.17891694 0.00000000)
		(1.39106145 0.19264220 0.00000000)
		(1.40782123 0.20506802 0.00000000)
		(1.42458101 0.21611057 0.00000000)
		(1.44134078 0.22569537 0.00000000)
		(1.45810056 0.23375777 0.00000000)
		(1.47486034 0.24024338 0.00000000)
		(1.49162011 0.24510846 0.00000000)
		(1.50837989 0.24832019 0.00000000)
		(1.52513966 0.24985690 0.00000000)
		(1.54189944 0.24970824 0.00000000)
		(1.55865922 0.24787519 0.00000000)
		(1.57541899 0.24437013 0.00000000)
		(1.59217877 0.23921670 0.00000000)
		(1.60893855 0.23244965 0.00000000)
		(1.62569832 0.22411465 0.00000000)
		(1.64245810 0.21426791 0.00000000)
		(1.65921788 0.20297584 0.00000000)
		(1.67597765 0.19031463 0.00000000)
		(1.69273743 0.17636967 0.00000000)
		(1.70949721 0.16123503 0.00000000)
		(1.72625698 0.14501280 0.00000000)
		(1.74301676 0.12781240 0.00000000)
		(1.75977654 0.10974985 0.00000000)
		(1.77653631 0.09094700 0.00000000)
		(1.79329609 0.07153068 0.00000000)
		(1.81005587 0.05163186 0.00000000)
		(1.82681564 0.03138476 0.00000000)
		(1.84357542 0.01092595 0.00000000)
		(1.86033520 -0.00960655 0.00000000)
		(1.87709497 -0.03007425 0.00000000)
		(1.89385475 -0.05033910 0.00000000)
		(1.91061453 -0.07026438 0.00000000)
		(1.92737430 -0.08971570 0.00000000)
		(1.94413408 -0.10856186 0.00000000)
		(1.96089385 -0.12667572 0.00000000)
		(1.97765363 -0.14393511 0.00000000)
		(1.99441341 -0.16022360 0.00000000)
		(2.01117318 -0.17543132 0.00000000)
		(2.02793296 -0.18945569 0.00000000)
		(2.04469274 -0.20220211 0.00000000)
		(2.06145251 -0.21358460 0.00000000)
		(2.07821229 -0.22352637 0.00000000)
		(2.09497207 -0.23196037 0.00000000)
		(2.11173184 -0.23882971 0.00000000)
		(2.12849162 -0.24408806 0.00000000)
		(2.14525140 -0.24769993 0.00000000)
		(2.16201117 -0.24964097 0.00000000)
		(2.17877095 -0.24989809 0.00000000)
		(2.19553073 -0.24846955 0.00000000)
		(2.21229050 -0.24536499 0.00000000)
		(2.22905028 -0.24060534 0.00000000)
		(2.24581006 -0.23422272 0.00000000)
		(2.26256983 -0.22626017 0.00000000)
		(2.27932961 -0.21677142 0.00000000)
		(2.29608939 -0.20582045 0.00000000)
		(2.31284916 -0.19348115 0.00000000)
		(2.32960894 -0.17983674 0.00000000)
		(2.34636872 -0.16497927 0.00000000)
		(2.36312849 -0.14900895 0.00000000)
		(2.37988827 -0.13203350 0.00000000)
		(2.39664804 -0.11416743 0.00000000)
		(2.41340782 -0.09553127 0.00000000)
		(2.43016760 -0.07625071 0.00000000)
		(2.44692737 -0.05645580 0.00000000)
		(2.46368715 -0.03628008 0.00000000)
		(2.48044693 -0.01585964 0.00000000)
		(2.49720670 0.00466778 0.00000000)
		(2.51396648 0.02516372 0.00000000)
		(2.53072626 0.04548991 0.00000000)
		(2.54748603 0.06550926 0.00000000)
		(2.56424581 0.08508673 0.00000000)
		(2.58100559 0.10409025 0.00000000)
		(2.59776536 0.12239164 0.00000000)
		(2.61452514 0.13986746 0.00000000)
		(2.63128492 0.15639981 0.00000000)
		(2.64804469 0.17187719 0.00000000)
		(2.66480447 0.18619518 0.00000000)
		(2.68156425 0.19925723 0.00000000)
		(2.69832402 0.21097520 0.00000000)
		(2.71508380 0.22127006 0.00000000)
		(2.73184358 0.23007238 0.00000000)
		(2.74860335 0.23732276 0.00000000)
		(2.76536313 0.24297231 0.00000000)
		(2.78212291 0.24698292 0.00000000)
		(2.79888268 0.24932754 0.00000000)
		(2.81564246 0.24999034 0.00000000)
		(2.83240223 0.24896686 0.00000000)
		(2.84916201 0.24626401 0.00000000)
		(2.86592179 0.24190001 0.00000000)
		(2.88268156 0.23590430 0.00000000)
		(2.89944134 0.22831732 0.00000000)
		(2.91620112 0.21919026 0.00000000)
		(2.93296089 0.20858467 0.00000000)
		(2.95166480 0.19801350 0.00000000)
		(2.97036872 0.18855507 0.00000000)
		(2.98907263 0.18020941 0.00000000)
		(3.00777654 0.17297649 0.00000000)
		(3.02648045 0.16685634 0.00000000)
		(3.04518436 0.16184894 0.00000000)
		(3.06388827 0.15795429 0.00000000)
		(3.08259218 0.15517240 0.00000000)
		(3.10129609 0.15350327 0.00000000)
		(3.12000000 0.15294689 0.00000000)
		(3.14000000 0.15294689 0.00000000)
		(3.16000000 0.15294689 0.00000000)
		(3.18000000 0.15294689 0.00000000)
		(3.20000000 0.15294689 0.00000000)
		(3.22000000 0.15294689 0.00000000)
		(3.24000000 0.15294689 0.00000000)
		(3.26000000 0.15294689 0.00000000)
		(3.28000000 0.15294689 0.00000000)
		(3.30000000 0.15294689 0.00000000)
		(3.32000000 0.15294689 0.00000000)
		(3.34000000 0.15294689 0.00000000)
		(3.36000000 0.15294689 0.00000000)
		(3.38000000 0.15294689 0.00000000)
		(3.40000000 0.15294689 0.00000000)
		(3.42000000 0.15294689 0.00000000)
		(3.44000000 0.15294689 0.00000000)
		(3.46000000 0.15294689 0.00000000)
		(3.48000000 0.15294689 0.00000000)
		(3.50000000 0.15294689 0.00000000)
		(3.52000000 0.15294689 0.00000000)
		(3.54000000 0.15294689 0.00000000)
		(3.56000000 0.15294689 0.00000000)
		(3.58000000 0.15294689 0.00000000)
		(3.60000000 0.15294689 0.00000000)
		(3.62000000 0.15294689 0.00000000)
		(3.64000000 0.15294689 0.00000000)
		(3.66000000 0.15294689 0.00000000)
		(3.68000000 0.15294689 0.00000000)
		(3.70000000 0.15294689 0.00000000)
		(3.72000000 0.15294689 0.00000000)
		(3.74000000 0.15294689 0.00000000)
		(3.76000000 0.15294689 0.00000000)
		(3.78000000 0.15294689 0.00000000)
		(3.80000000 0.15294689 0.00000000)
		(3.82000000 0.15294689 0.00000000)
		(3.84000000 0.15294689 0.00000000)
		(3.86000000 0.15294689 0.00000000)
		(3.88000000 0.15294689 0.00000000)
		(3.90000000 0.15294689 0.00000000)
		(3.92000000 0.15294689 0.00000000)
		(3.94000000 0.15294689 0.00000000)
		(3.96000000 0.15294689 0.00000000)
		(3.98000000 0.15294689 0.00000000)
		(4.00000000 0.15294689 0.00000000)
	)
	polyLine 4 5
	(
		(-1.00000000 0.08435769 0.10000000)
		(-0.98000000 0.08435769 0.10000000)
		(-0.96000000 0.08435769 0.10000000)
		(-0.94000000 0.08435769 0.10000000)
		(-0.92000000 0.08435769 0.10000000)
		(-0.90000000 0.08435769 0.10000000)
		(-0.88000000 0.08435769 0.10000000)
		(-0.86000000 0.08435769 0.10000000)
		(-0.84000000 0.08435769 0.10000000)
		(-0.82000000 0.08435769 0.10000000)
		(-0.80000000 0.08435769 0.10000000)
		(-0.78000000 0.08435769 0.10000000)
		(-0.76000000 0.08435769 0.10000000)
		(-0.74000000 0.08435769 0.10000000)
		(-0.72000000 0.08435769 0.10000000)
		(-0.70000000 0.08435769 0.10000000)
		(-0.68000000 0.08435769 0.10000000)
		(-0.66000000 0.08435769 0.10000000)
		(-0.64000000 0.08435769 0.10000000)
		(-0.62000000 0.08435769 0.10000000)
		(-0.60000000 0.08435769 0.10000000)
		(-0.58000000 0.08435769 0.10000000)
		(-0.56000000 0.08435769 0.10000000)
		(-0.54000000 0.08435769 0.10000000)
		(-0.52000000 0.08435769 0.10000000)
		(-0.50000000 0.08435769 0.10000000)
		(-0.48000000 0.08435769 0.10000000)
		(-0.46000000 0.08435769 0.10000000)
		(-0.44000000 0.08435769 0.10000000)
		(-0.42000000 0.08435769 0.10000000)
		(-0.40000000 0.08435769 0.10000000)
		(-0.38000000 0.08435769 0.10000000)
		(-0.36000000 0.08435769 0.10000000)
		(-0.34000000 0.08435769 0.10000000)
		(-0.32000000 0.08435769 0.10000000)
		(-0.30000000 0.08435769 0.10000000)
		(-0.28000000 0.08435769 0.10000000)
		(-0.26000000 0.08435769 0.10000000)
		(-0.24000000 0.08435769 0.10000000)
		(-0.22000000 0.08435769 0.10000000)
		(-0.20000000 0.08435769 0.10000000)
		(-0.18000000 0.08435769 0.10000000)
		(-0.16000000 0.08435769 0.10000000)
		(-0.14000000 0.08435769 0.10000000)
		(-0.12000000 0.08435769 0.10000000)
		(-0.10000000 0.08435769 0.10000000)
		(-0.08162011 0.08522725 0.10000000)
		(-0.06324022 0.08783593 0.10000000)
		(-0.04486034 0.09218373 0.10000000)
		(-0.02648045 0.09827064 0.10000000)
		(-0.00810056 0.10609668 0.10000000)
		(0.01027933 0.11566184 0.10000000)
		(0.02865922 0.12696611 0.10000000)
		(0.04703911 0.14000951 0.10000000)
		(0.06541899 0.15479202 0.10000000)
		(0.08379888 0.17131365 0.10000000)
		(0.10055866 0.18567720 0.10000000)
		(0.11731844 0.19878828 0.10000000)
		(0.13407821 0.21055846 0.10000000)
		(0.15083799 0.22090834 0.10000000)
		(0.16759777 0.22976810 0.10000000)
		(0.18435754 0.23707800 0.10000000)
		(0.20111732 0.24278871 0.10000000)
		(0.21787709 0.24686171 0.10000000)
		(0.23463687 0.24926954 0.10000000)
		(0.25139665 0.24999595 0.10000000)
		(0.26815642 0.24903604 0.10000000)
		(0.28491620 0.24639629 0.10000000)
		(0.30167598 0.24209450 0.10000000)
		(0.31843575 0.23615968 0.10000000)
		(0.33519553 0.22863188 0.10000000)
		(0.35195531 0.21956187 0.10000000)
		(0.36871508 0.20901083 0.10000000)
		(0.38547486 0.19704993 0.10000000)
		(0.40223464 0.18375985 0.10000000)
		(0.41899441 0.16923025 0.10000000)
		(0.43575419 0.15355911 0.10000000)
		(0.45251397 0.13685217 0.10000000)
		(0.46927374 0.11922210 0.10000000)
		(0.48603352 0.10078783 0.10000000)
		(0.50279330 0.08167371 0.10000000)
		(0.51955307 0.06200867 0.10000000)
		(0.53631285 0.04192536 0.10000000)
		(0.55307263 0.02155924 0.10000000)
		(0.56983240 0.00104770 0.10000000)
		(0.58659218 -0.01947091 0.10000000)
		(0.60335196 -0.03985818 0.10000000)
		(0.62011173 -0.05997659 0.10000000)
		(0.63687151 -0.07969043 0.10000000)
		(0.65363128 -0.09886674 0.10000000)
		(0.67039106 -0.11737614 0.10000000)
		(0.68715084 -0.13509381 0.10000000)
		(0.70391061 -0.15190021 0.10000000)
		(0.72067039 -0.16768198 0.10000000)
		(0.73743017 -0.18233268 0.10000000)
		(0.75418994 -0.19575347 0.10000000)
		(0.77094972 -0.20785383 0.10000000)
		(0.78770950 -0.21855213 0.10000000)
		(0.80446927 -0.22777622 0.10000000)
		(0.82122905 -0.23546387 0.10000000)
		(0.83798883 -0.24156322 0.10000000)
		(0.85474860 -0.24603314 0.10000000)
		(0.87150838 -0.24884346 0.10000000)
		(0.88826816 -0.24997525 0.10000000)
		(0.90502793 -0.24942085 0.10000000)
		(0.92178771 -0.24718401 0.10000000)
		(0.93854749 -0.24327982 0.10000000)
		(0.95530726 -0.23773462 0.10000000)
		(0.97206704 -0.23058580 0.10000000)
		(0.98882682 -0.22188159 0.10000000)
		(1.00558659 -0.21168071 0.10000000)
		(1.02234637 -0.20005196 0.10000000)
		(1.03910615 -0.18707378 0.10000000)
		(1.05586592 -0.17283371 0.10000000)
		(1.07262570 -0.15742782 0.10000000)
		(1.08938547 -0.14096001 0.10000000)
		(1.10614525 -0.12354137 0.10000000)
		(1.12290503 -0.10528940 0.10000000)
		(1.13966480 -0.08632722 0.10000000)
		(1.15642458 -0.06678272 0.10000000)
		(1.17318436 -0.04678774 0.10000000)
		(1.18994413 -0.02647717 0.10000000)
		(1.20670391 -0.00598800 0.10000000)
		(1.22346369 0.01454157 0.10000000)
		(1.24022346 0.03497305 0.10000000)
		(1.25698324 0.05516862 0.10000000)
		(1.27374302 0.07499205 0.10000000)
		(1.29050279 0.09430964 0.10000000)
		(1.30726257 0.11299107 0.10000000)
		(1.32402235 0.13091033 0.10000000)
		(1.34078212 0.14794655 0.10000000)
		(1.35754190 0.16398482 0.10000000)
		(1.37430168 0.17891694 0.10000000)
		(1.39106145 0.19264220 0.10000000)
		(1.40782123 0.20506802 0.10000000)
		(1.42458101 0.21611057 0.10000000)
		(1.44134078 0.22569537 0.10000000)
		(1.45810056 0.23375777 0.10000000)
		(1.47486034 0.24024338 0.10000000)
		(1.49162011 0.24510846 0.10000000)
		(1.50837989 0.24832019 0.10000000)
		(1.52513966 0.24985690 0.10000000)
		(1.54189944 0.24970824 0.10000000)
		(1.55865922 0.24787519 0.10000000)
		(1.57541899 0.24437013 0.10000000)
		(1.59217877 0.23921670 0.10000000)
		(1.60893855 0.23244965 0.10000000)
		(1.62569832 0.22411465 0.10000000)
		(1.64245810 0.21426791 0.10000000)
		(1.65921788 0.20297584 0.10000000)
		(1.67597765 0.19031463 0.10000000)
		(1.69273743 0.17636967 0.10000000)
		(1.70949721 0.16123503 0.10000000)
		(1.72625698 0.14501280 0.10000000)
		(1.74301676 0.12781240 0.10000000)
		(1.75977654 0.10974985 0.10000000)
		(1.77653631 0.09094700 0.10000000)
		(1.79329609 0.07153068 0.10000000)
		(1.81005587 0.05163186 0.10000000)
		(1.82681564 0.03138476 0.10000000)
		(1.84357542 0.01092595 0.10000000)
		(1.86033520 -0.00960655 0.10000000)
		(1.87709497 -0.03007425 0.10000000)
		(1.89385475 -0.05033910 0.10000000)
		(1.91061453 -0.07026438 0.10000000)
		(1.92737430 -0.08971570 0.10000000)
		(1.94413408 -0.10856186 0.10000000)
		(1.96089385 -0.12667572 0.10000000)
		(1.97765363 -0.14393511 0.10000000)
		(1.99441341 -0.16022360 0.10000000)
		(2.01117318 -0.17543132 0.10000000)
		(2.02793296 -0.18945569 0.10000000)
		(2.04469274 -0.20220211 0.10000000)
		(2.06145251 -0.21358460 0.10000000)
		(2.07821229 -0.22352637 0.10000000)
		(2.09497207 -0.23196037 0.10000000)
		(2.11173184 -0.23882971 0.10000000)
		(2.12849162 -0.24408806 0.10000000)
		(2.14525140 -0.24769993 0.10000000)
		(2.16201117 -0.24964097 0.10000000)
		(2.17877095 -0.24989809 0.10000000)
		(2.19553073 -0.24846955 0.10000000)
		(2.21229050 -0.24536499 0.10000000)
		(2.22905028 -0.24060534 0.10000000)
		(2.24581006 -0.23422272 0.10000000)
		(2.26256983 -0.22626017 0.10000000)
		(2.27932961 -0.21677142 0.10000000)
		(2.29608939 -0.20582045 0.10000000)
		(2.31284916 -0.19348115 0.10000000)
		(2.32960894 -0.17983674 0.10000000)
		(2.34636872 -0.16497927 0.10000000)
		(2.36312849 -0.14900895 0.10000000)
		(2.37988827 -0.13203350 0.10000000)
		(2.39664804 -0.11416743 0.10000000)
		(2.41340782 -0.09553127 0.10000000)
		(2.43016760 -0.07625071 0.10000000)
		(2.44692737 -0.05645580 0.10000000)
		(2.46368715 -0.03628008 0.10000000)
		(2.48044693 -0.01585964 0.10000000)
		(2.49720670 0.00466778 0.10000000)
		(2.51396648 0.02516372 0.10000000)
		(2.53072626 0.04548991 0.10000000)
		(2.54748603 0.06550926 0.10000000)
		(2.56424581 0.08508673 0.10000000)
		(2.58100559 0.10409025 0.10000000)
		(2.59776536 0.12239164 0.10000000)
		(2.61452514 0.13986746 0.10000000)
		(2.63128492 0.15639981 0.10000000)
		(2.64804469 0.17187719 0.10000000)
		(2.66480447 0.18619518 0.10000000)
		(2.68156425 0.19925723 0.10000000)
		(2.69832402 0.21097520 0.10000000)
		(2.71508380 0.22127006 0.10000000)
		(2.73184358 0.23007238 0.10000000)
		(2.74860335 0.23732276 0.10000000)
		(2.76536313 0.24297231 0.10000000)
		(2.78212291 0.24698292 0.10000000)
		(2.79888268 0.24932754 0.10000000)
		(2.81564246 0.24999034 0.10000000)
		(2.83240223 0.24896686 0.10000000)
		(2.84916201 0.24626401 0.10000000)
		(2.86592179 0.24190001 0.10000000)
		(2.88268156 0.23590430 0.10000000)
		(2.89944134 0.22831732 0.10000000)
		(2.91620112 0.21919026 0.10000000)
		(2.93296089 0.20858467 0.10000000)
		(2.95166480 0.19801350 0.10000000)
		(2.97036872 0.18855507 0.10000000)
		(2.98907263 0.18020941 0.10000000)
		(3.00777654 0.17297649 0.10000000)
		(3.02648045 0.16685634 0.10000000)
		(3.04518436 0.16184894 0.10000000)
		(3.06388827 0.15795429 0.10000000)
		(3.08259218 0.15517240 0.10000000)
		(3.10129609 0.15350327 0.10000000)
		(3.12000000 0.15294689 0.10000000)
		(3.14000000 0.15294689 0.10000000)
		(3.16000000 0.15294689 0.10000000)
		(3.18000000 0.15294689 0.10000000)
		(3.20000000 0.15294689 0.10000000)
		(3.22000000 0.15294689 0.10000000)
		(3.24000000 0.15294689 0.10000000)
		(3.26000000 0.15294689 0.10000000)
		(3.28000000 0.15294689 0.10000000)
		(3.30000000 0.15294689 0.10000000)
		(3.32000000 0.15294689 0.10000000)
		(3.34000000 0.15294689 0.10000000)
		(3.36000000 0.15294689 0.10000000)
		(3.38000000 0.15294689 0.10000000)
		(3.40000000 0.15294689 0.10000000)
		(3.42000000 0.15294689 0.10000000)
		(3.44000000 0.15294689 0.10000000)
		(3.46000000 0.15294689 0.10000000)
		(3.48000000 0.15294689 0.10000000)
		(3.50000000 0.15294689 0.10000000)
		(3.52000000 0.15294689 0.10000000)
		(3.54000000 0.15294689 0.10000000)
		(3.56000000 0.15294689 0.10000000)
		(3.58000000 0.15294689 0.10000000)
		(3.60000000 0.15294689 0.10000000)
		(3.62000000 0.15294689 0.10000000)
		(3.64000000 0.15294689 0.10000000)
		(3.66000000 0.15294689 0.10000000)
		(3.68000000 0.15294689 0.10000000)
		(3.70000000 0.15294689 0.10000000)
		(3.72000000 0.15294689 0.10000000)
		(3.74000000 0.15294689 0.10000000)
		(3.76000000 0.15294689 0.10000000)
		(3.78000000 0.15294689 0.10000000)
		(3.80000000 0.15294689 0.10000000)
		(3.82000000 0.15294689 0.10000000)
		(3.84000000 0.15294689 0.10000000)
		(3.86000000 0.15294689 0.10000000)
		(3.88000000 0.15294689 0.10000000)
		(3.90000000 0.15294689 0.10000000)
		(3.92000000 0.15294689 0.10000000)
		(3.94000000 0.15294689 0.10000000)
		(3.96000000 0.15294689 0.10000000)
		(3.98000000 0.15294689 0.10000000)
		(4.00000000 0.15294689 0.10000000)
	)
	polyLine 3 2
	(
		(-1.00000000 0.58435769 0.00000000)
		(-0.98000000 0.58347539 0.00000000)
		(-0.96000000 0.58259309 0.00000000)
		(-0.94000000 0.58171079 0.00000000)
		(-0.92000000 0.58082849 0.00000000)
		(-0.90000000 0.57994619 0.00000000)
		(-0.88000000 0.57906389 0.00000000)
		(-0.86000000 0.57818159 0.00000000)
		(-0.84000000 0.57729929 0.00000000)
		(-0.82000000 0.57641700 0.00000000)
		(-0.80000000 0.57553470 0.00000000)
		(-0.78000000 0.57465240 0.00000000)
		(-0.76000000 0.57377010 0.00000000)
		(-0.74000000 0.57288780 0.00000000)
		(-0.72000000 0.57200550 0.00000000)
		(-0.70000000 0.57112320 0.00000000)
		(-0.68000000 0.57024090 0.00000000)
		(-0.66000000 0.56935860 0.00000000)
		(-0.64000000 0.56847630 0.00000000)
		(-0.62000000 0.56759400 0.00000000)
		(-0.60000000 0.56671170 0.00000000)
		(-0.58000000 0.56582940 0.00000000)
		(-0.56000000 0.56494710 0.00000000)
		(-0.54000000 0.56406480 0.00000000)
		(-0.52000000 0.56318251 0.00000000)
		(-0.50000000 0.56230021 0.00000000)
		(-0.48000000 0.56141791 0.00000000)
		(-0.46000000 0.56053561 0.00000000)
		(-0.44000000 0.55965331 0.00000000)
		(-0.42000000 0.55877101 0.00000000)
		(-0.40000000 0.55788871 0.00000000)
		(-0.38000000 0.55700641 0.00000000)
		(-0.36000000 0.55612411 0.00000000)
		(-0.34000000 0.55524181 0.00000000)
		(-0.32000000 0.55435951 0.00000000)
		(-0.30000000 0.55347721 0.00000000)
		(-0.28000000 0.55259491 0.00000000)
		(-0.26000000 0.55171261 0.00000000)
		(-0.24000000 0.55083031 0.00000000)
		(-0.22000000 0.54994802 0.00000000)
		(-0.20000000 0.54906572 0.00000000)
		(-0.18000000 0.54818342 0.00000000)
		(-0.16000000 0.54730112 0.00000000)
		(-0.14000000 0.54641882 0.00000000)
		(-0.12000000 0.54553652 0.00000000)
		(-0.10000000 0.54465422 0.00000000)
		(-0.08162011 0.54375380 0.00000000)
		(-0.06324022 0.54391708 0.00000000)
		(-0.04486034 0.54514406 0.00000000)
		(-0.02648045 0.54743476 0.00000000)
		(-0.00810056 0.55078915 0.00000000)
		(0.01027933 0.55520726 0.00000000)
		(0.02865922 0.56068906 0.00000000)
		(0.04703911 0.56723458 0.00000000)
		(0.06541899 0.57484380 0.00000000)
		(0.08379888 0.58351672 0.00000000)
		(0.10055866 0.59051906 0.00000000)
		(0.11731844 0.59691081 0.00000000)
		(0.13407821 0.60264887 0.00000000)
		(0.15083799 0.60769451 0.00000000)
		(0.16759777 0.61201372 0.00000000)
		(0.18435754 0.61557735 0.00000000)
		(0.20111732 0.61836136 0.00000000)
		(0.21787709 0.62034698 0.00000000)
		(0.23463687 0.62152082 0.00000000)
		(0.25139665 0.62187495 0.00000000)
		(0.26815642 0.62140698 0.00000000)
		(0.28491620 0.62012008 0.00000000)
		(0.30167598 0.61802293 0.00000000)
		(0.31843575 0.61512966 0.00000000)
		(0.33519553 0.61145980 0.00000000)
		(0.35195531 0.60703810 0.00000000)
		(0.36871508 0.60189439 0.00000000)
		(0.38547486 0.59606336 0.00000000)
		(0.40223464 0.58958434 0.00000000)
		(0.41899441 0.58250105 0.00000000)
		(0.43575419 0.57486125 0.00000000)
		(0.45251397 0.56671648 0.00000000)
		(0.46927374 0.55812169 0.00000000)
		(0.48603352 0.54913484 0.00000000)
		(0.50279330 0.53981656 0.00000000)
		(0.51955307 0.53022970 0.00000000)
		(0.53631285 0.52043893 0.00000000)
		(0.55307263 0.51051030 0.00000000)
		(0.56983240 0.50051076 0.00000000)
		(0.58659218 0.49050778 0.00000000)
		(0.60335196 0.48056883 0.00000000)
		(0.62011173 0.47076095 0.00000000)
		(0.63687151 0.46115030 0.00000000)
		(0.65363128 0.45180171 0.00000000)
		(0.67039106 0.44277823 0.00000000)
		(0.68715084 0.43414073 0.00000000)
		(0.70391061 0.42594748 0.00000000)
		(0.72067039 0.41825374 0.00000000)
		(0.73743017 0.41111142 0.00000000)
		(0.75418994 0.40456868 0.00000000)
		(0.77094972 0.39866966 0.00000000)
		(0.78770950 0.39345415 0.00000000)
		(0.80446927 0.38895734 0.00000000)
		(0.82122905 0.38520955 0.00000000)
		(0.83798883 0.38223607 0.00000000)
		(0.85474860 0.38005695 0.00000000)
		(0.87150838 0.37868690 0.00000000)
		(0.88826816 0.37813515 0.00000000)
		(0.90502793 0.37840542 0.00000000)
		(0.92178771 0.37949589 0.00000000)
		(0.93854749 0.38139922 0.00000000)
		(0.95530726 0.38410255 0.00000000)
		(0.97206704 0.38758765 0.00000000)
		(0.98882682 0.39183102 0.00000000)
		(1.00558659 0.39680403 0.00000000)
		(1.02234637 0.40247313 0.00000000)
		(1.03910615 0.40880010 0.00000000)
		(1.05586592 0.41574224 0.00000000)
		(1.07262570 0.42325273 0.00000000)
		(1.08938547 0.43128091 0.00000000)
		(1.10614525 0.43977263 0.00000000)
		(1.12290503 0.44867061 0.00000000)
		(1.13966480 0.45791482 0.00000000)
		(1.15642458 0.46744291 0.00000000)
		(1.17318436 0.47719062 0.00000000)
		(1.18994413 0.48709218 0.00000000)
		(1.20670391 0.49708081 0.00000000)
		(1.22346369 0.50708913 0.00000000)
		(1.24022346 0.51704963 0.00000000)
		(1.25698324 0.52689512 0.00000000)
		(1.27374302 0.53655920 0.00000000)
		(1.29050279 0.54597667 0.00000000)
		(1.30726257 0.55508401 0.00000000)
		(1.32402235 0.56381979 0.00000000)
		(1.34078212 0.57212508 0.00000000)
		(1.35754190 0.57994386 0.00000000)
		(1.37430168 0.58722338 0.00000000)
		(1.39106145 0.59391455 0.00000000)
		(1.40782123 0.59997223 0.00000000)
		(1.42458101 0.60535556 0.00000000)
		(1.44134078 0.61002823 0.00000000)
		(1.45810056 0.61395871 0.00000000)
		(1.47486034 0.61712050 0.00000000)
		(1.49162011 0.61949226 0.00000000)
		(1.50837989 0.62105800 0.00000000)
		(1.52513966 0.62180716 0.00000000)
		(1.54189944 0.62173468 0.00000000)
		(1.55865922 0.62084106 0.00000000)
		(1.57541899 0.61913232 0.00000000)
		(1.59217877 0.61661998 0.00000000)
		(1.60893855 0.61332099 0.00000000)
		(1.62569832 0.60925761 0.00000000)
		(1.64245810 0.60445725 0.00000000)
		(1.65921788 0.59895228 0.00000000)
		(1.67597765 0.59277985 0.00000000)
		(1.69273743 0.58598157 0.00000000)
		(1.70949721 0.57860332 0.00000000)
		(1.72625698 0.57069485 0.00000000)
		(1.74301676 0.56230953 0.00000000)
		(1.75977654 0.55350390 0.00000000)
		(1.77653631 0.54433736 0.00000000)
		(1.79329609 0.53487176 0.00000000)
		(1.81005587 0.52517093 0.00000000)
		(1.82681564 0.51530031 0.00000000)
		(1.84357542 0.50532649 0.00000000)
		(1.86033520 0.49531673 0.00000000)
		(1.87709497 0.48533857 0.00000000)
		(1.89385475 0.47545930 0.00000000)
		(1.91061453 0.46574557 0.00000000)
		(1.92737430 0.45626291 0.00000000)
		(1.94413408 0.44707526 0.00000000)
		(1.96089385 0.43824461 0.00000000)
		(1.97765363 0.42983053 0.00000000)
		(1.99441341 0.42188976 0.00000000)
		(2.01117318 0.41447588 0.00000000)
		(2.02793296 0.40763889 0.00000000)
		(2.04469274 0.40142492 0.00000000)
		(2.06145251 0.39587587 0.00000000)
		(2.07821229 0.39102918 0.00000000)
		(2.09497207 0.38691754 0.00000000)
		(2.11173184 0.38356868 0.00000000)
		(2.12849162 0.38100520 0.00000000)
		(2.14525140 0.37924438 0.00000000)
		(2.16201117 0.37829811 0.00000000)
		(2.17877095 0.37817276 0.00000000)
		(2.19553073 0.37886918 0.00000000)
		(2.21229050 0.38038268 0.00000000)
		(2.22905028 0.38270305 0.00000000)
		(2.24581006 0.38581462 0.00000000)
		(2.26256983 0.38969643 0.00000000)
		(2.27932961 0.39432227 0.00000000)
		(2.29608939 0.39966095 0.00000000)
		(2.31284916 0.40567645 0.00000000)
		(2.32960894 0.41232820 0.00000000)
		(2.34636872 0.41957134 0.00000000)
		(2.36312849 0.42735699 0.00000000)
		(2.37988827 0.43563265 0.00000000)
		(2.39664804 0.44434250 0.00000000)
		(2.41340782 0.45342777 0.00000000)
		(2.43016760 0.46282720 0.00000000)
		(2.44692737 0.47247736 0.00000000)
		(2.46368715 0.48231318 0.00000000)
		(2.48044693 0.49226830 0.00000000)
		(2.49720670 0.50227558 0.00000000)
		(2.51396648 0.51226751 0.00000000)
		(2.53072626 0.52217668 0.00000000)
		(2.54748603 0.53193627 0.00000000)
		(2.56424581 0.54148043 0.00000000)
		(2.58100559 0.55074480 0.00000000)