/*--------------------------------*- C++ -*----------------------------------*\\
/*--------------------------------*- C++ -*----------------------------------*\\
| =========                 |                                                 |
| \\\\      /  F ield         | OpenFOAM: The Open Source CFD Toolbox           |
|  \\\\    /   O peration     | Version:  v2012                                 |
|   \\\\  /    A nd           | Website:  www.openfoam.com                      |
|    \\\\/     M anipulation  |                                                 |
\\*---------------------------------------------------------------------------*/
FoamFile
{
    version     2.0;
    format      ascii;
    class       dictionary;
    object      blockMeshDict;
}
// * * * * * * * * * * * * * * * * * * * * * * * * * * * * * * * * * * * * * //

scale   0.01;

xmin -1;
xmax 5;
ymin 0;
ymax 0.5;
zmin 0;
zmax 0.1;

vertices
(
    (-1.00000000 -0.00409817 0.00000000)
    (4.00000000 0.03769426 0.00000000)
    (4.00000000 0.53769426 0.00000000)
    (-1.00000000 0.49590183 0.00000000)
    (-1.00000000 -0.00409817 0.10000000)
    (4.00000000 0.03769426 0.10000000)
    (4.00000000 0.53769426 0.10000000)
    (-1.00000000 0.49590183 0.10000000)
);

blocks
(
    hex (0 1 2 3 4 5 6 7) (200 20 1) simpleGrading (1 1 1)
);

edges
(
	polyLine 0 1
	(
		(-1.00000000 -0.00409817 0.00000000)
		(-0.98000000 -0.00409817 0.00000000)
		(-0.96000000 -0.00409817 0.00000000)
		(-0.94000000 -0.00409817 0.00000000)
		(-0.92000000 -0.00409817 0.00000000)
		(-0.90000000 -0.00409817 0.00000000)
		(-0.88000000 -0.00409817 0.00000000)
		(-0.86000000 -0.00409817 0.00000000)
		(-0.84000000 -0.00409817 0.00000000)
		(-0.82000000 -0.00409817 0.00000000)
		(-0.80000000 -0.00409817 0.00000000)
		(-0.78000000 -0.00409817 0.00000000)
		(-0.76000000 -0.00409817 0.00000000)
		(-0.74000000 -0.00409817 0.00000000)
		(-0.72000000 -0.00409817 0.00000000)
		(-0.70000000 -0.00409817 0.00000000)
		(-0.68000000 -0.00409817 0.00000000)
		(-0.66000000 -0.00409817 0.00000000)
		(-0.64000000 -0.00409817 0.00000000)
		(-0.62000000 -0.00409817 0.00000000)
		(-0.60000000 -0.00409817 0.00000000)
		(-0.58000000 -0.00409817 0.00000000)
		(-0.56000000 -0.00409817 0.00000000)
		(-0.54000000 -0.00409817 0.00000000)
		(-0.52000000 -0.00409817 0.00000000)
		(-0.50000000 -0.00409817 0.00000000)
		(-0.48000000 -0.00409817 0.00000000)
		(-0.46000000 -0.00409817 0.00000000)
		(-0.44000000 -0.00409817 0.00000000)
		(-0.42000000 -0.00409817 0.00000000)
		(-0.40000000 -0.00409817 0.00000000)
		(-0.38000000 -0.00409817 0.00000000)
		(-0.36000000 -0.00409817 0.00000000)
		(-0.34000000 -0.00409817 0.00000000)
		(-0.32000000 -0.00409817 0.00000000)
		(-0.30000000 -0.00409817 0.00000000)
		(-0.28000000 -0.00409817 0.00000000)
		(-0.26000000 -0.00409817 0.00000000)
		(-0.24000000 -0.00409817 0.00000000)
		(-0.22000000 -0.00409817 0.00000000)
		(-0.20000000 -0.00409817 0.00000000)
		(-0.18000000 -0.00409817 0.00000000)
		(-0.16000000 -0.00409817 0.00000000)
		(-0.14000000 -0.00409817 0.00000000)
		(-0.12000000 -0.00409817 0.00000000)
		(-0.10000000 -0.00409817 0.00000000)
		(-0.08162011 -0.00516467 0.00000000)
		(-0.06324022 -0.00836416 0.00000000)
		(-0.04486034 -0.01369665 0.00000000)
		(-0.02648045 -0.02116214 0.00000000)
		(-0.00810056 -0.03076062 0.00000000)
		(0.01027933 -0.04249210 0.00000000)
		(0.02865922 -0.05635658 0.00000000)
		(0.04703911 -0.07235405 0.00000000)
		(0.06541899 -0.09048452 0.00000000)
		(0.08379888 -0.11074798 0.00000000)
		(0.10055866 -0.13012601 0.00000000)
		(0.11731844 -0.14848533 0.00000000)
		(0.13407821 -0.16568224 0.00000000)
		(0.15083799 -0.18158209 0.00000000)
		(0.16759777 -0.19606042 0.00000000)
		(0.18435754 -0.20900388 0.00000000)
		(0.20111732 -0.22031114 0.00000000)
		(0.21787709 -0.22989369 0.00000000)
		(0.23463687 -0.23767650 0.00000000)
		(0.25139665 -0.24359866 0.00000000)
		(0.26815642 -0.24761379 0.00000000)
		(0.28491620 -0.24969046 0.00000000)
		(0.30167598 -0.24981242 0.00000000)
		(0.31843575 -0.24797872 0.00000000)
		(0.33519553 -0.24420370 0.00000000)
		(0.35195531 -0.23851692 0.00000000)
		(0.36871508 -0.23096290 0.00000000)
		(0.38547486 -0.22160077 0.00000000)
		(0.40223464 -0.21050384 0.00000000)
		(0.41899441 -0.19775896 0.00000000)
		(0.43575419 -0.18346592 0.00000000)
		(0.45251397 -0.16773661 0.00000000)
		(0.46927374 -0.15069417 0.00000000)
		(0.48603352 -0.13247201 0.00000000)
		(0.50279330 -0.11321278 0.00000000)
		(0.51955307 -0.09306727 0.00000000)
		(0.53631285 -0.07219317 0.00000000)
		(0.55307263 -0.05075391 0.00000000)
		(0.56983240 -0.02891731 0.00000000)
		(0.58659218 -0.00685434 0.00000000)
		(0.60335196 0.01526230 0.00000000)
		(0.62011173 0.03725945 0.00000000)
		(0.63687151 0.05896491 0.00000000)
		(0.65363128 0.08020877 0.00000000)
		(0.67039106 0.10082470 0.00000000)
		(0.68715084 0.12065133 0.00000000)
		(0.70391061 0.13953343 0.00000000)
		(0.72067039 0.15732319 0.00000000)
		(0.73743017 0.17388134 0.00000000)
		(0.75418994 0.18907825 0.00000000)
		(0.77094972 0.20279495 0.00000000)
		(0.78770950 0.21492406 0.00000000)
		(0.80446927 0.22537063 0.00000000)
		(0.82122905 0.23405287 0.00000000)
		(0.83798883 0.24090282 0.00000000)
		(0.85474860 0.24586685 0.00000000)
		(0.87150838 0.24890610 0.00000000)
		(0.88826816 0.24999678 0.00000000)
		(0.90502793 0.24913035 0.00000000)
		(0.92178771 0.24631359 0.00000000)
		(0.93854749 0.24156855 0.00000000)
		(0.95530726 0.23493238 0.00000000)
		(0.97206704 0.22645704 0.00000000)
		(0.98882682 0.21620886 0.00000000)
		(1.00558659 0.20426808 0.00000000)
		(1.02234637 0.19072818 0.00000000)
		(1.03910615 0.17569516 0.00000000)
		(1.05586592 0.15928670 0.00000000)
		(1.07262570 0.14163125 0.00000000)
		(1.08938547 0.12286704 0.00000000)
		(1.10614525 0.10314096 0.00000000)
		(1.12290503 0.08260743 0.00000000)
		(1.13966480 0.06142721 0.00000000)
		(1.15642458 0.03976611 0.00000000)
		(1.17318436 0.01779369 0.00000000)
		(1.18994413 -0.00431803 0.00000000)
		(1.20670391 -0.02639594 0.00000000)
		(1.22346369 -0.04826721 0.00000000)
		(1.24022346 -0.06976062 0.00000000)
		(1.25698324 -0.09070791 0.00000000)
		(1.27374302 -0.11094508 0.00000000)
		(1.29050279 -0.13031371 0.00000000)
		(1.30726257 -0.14866218 0.00000000)
		(1.32402235 -0.16584684 0.00000000)
		(1.34078212 -0.18173316 0.00000000)
		(1.35754190 -0.19619677 0.00000000)
		(1.37430168 -0.20912445 0.00000000)
		(1.39106145 -0.22041499 0.00000000)
		(1.40782123 -0.22998000 0.00000000)
		(1.42458101 -0.23774460 0.00000000)
		(1.44134078 -0.24364800 0.00000000)
		(1.45810056 -0.24764400 0.00000000)
		(1.47486034 -0.24970130 0.00000000)
		(1.49162011 -0.24980381 0.00000000)
		(1.50837989 -0.24795071 0.00000000)
		(1.52513966 -0.24415653 0.00000000)
		(1.54189944 -0.23845095 0.00000000)
		(1.55865922 -0.23087864 0.00000000)
		(1.57541899 -0.22149890 0.00000000)
		(1.59217877 -0.21038513 0.00000000)
		(1.60893855 -0.19762436 0.00000000)
		(1.62569832 -0.18331648 0.00000000)
		(1.64245810 -0.16757350 0.00000000)
		(1.65921788 -0.15051865 0.00000000)
		(1.67597765 -0.13228547 0.00000000)
		(1.69273743 -0.11301669 0.00000000)
		(1.70949721 -0.09286314 0.00000000)
		(1.72625698 -0.07198262 0.00000000)
		(1.74301676 -0.05053857 0.00000000)
		(1.75977654 -0.02869888 0.00000000)
		(1.77653631 -0.00663453 0.00000000)
		(1.79329609 0.01548177 0.00000000)
		(1.81005587 0.03747687 0.00000000)
		(1.82681564 0.05917858 0.00000000)
		(1.84357542 0.08041700 0.00000000)
		(1.86033520 0.10102588 0.00000000)
		(1.87709497 0.12084387 0.00000000)
		(1.89385475 0.13971583 0.00000000)
		(1.91061453 0.15749402 0.00000000)
		(1.92737430 0.17403926 0.00000000)
		(1.94413408 0.18922203 0.00000000)
		(1.96089385 0.20292346 0.00000000)
		(1.97765363 0.21503630 0.00000000)
		(1.99441341 0.22546571 0.00000000)
		(2.01117318 0.23413006 0.00000000)
		(2.02793296 0.24096151 0.00000000)
		(2.04469274 0.24590658 0.00000000)
		(2.06145251 0.24892655 0.00000000)
		(2.07821229 0.24999780 0.00000000)
		(2.09497207 0.24911193 0.00000000)
		(2.11173184 0.24627587 0.00000000)
		(2.12849162 0.24151183 0.00000000)
		(2.14525140 0.23485711 0.00000000)
		(2.16201117 0.22636379 0.00000000)
		(2.17877095 0.21609838 0.00000000)
		(2.19553073 0.20414123 0.00000000)
		(2.21229050 0.19058595 0.00000000)
		(2.22905028 0.17553866 0.00000000)
		(2.24581006 0.15911716 0.00000000)
		(2.26256983 0.14145000 0.00000000)
		(2.27932961 0.12267549 0.00000000)
		(2.29608939 0.10294061 0.00000000)
		(2.31284916 0.08239986 0.00000000)
		(2.32960894 0.06121404 0.00000000)
		(2.34636872 0.03954900 0.00000000)
		(2.36312849 0.01757435 0.00000000)
		(2.37988827 -0.00453789 0.00000000)
		(2.39664804 -0.02661459 0.00000000)
		(2.41340782 -0.04848295 0.00000000)
		(2.43016760 -0.06997175 0.00000000)
		(2.44692737 -0.09091278 0.00000000)
		(2.46368715 -0.11114209 0.00000000)
		(2.48044693 -0.13050132 0.00000000)
		(2.49720670 -0.14883891 0.00000000)
		(2.51396648 -0.16601132 0.00000000)
		(2.53072626 -0.18188409 0.00000000)
		(2.54748603 -0.19633298 0.00000000)
		(2.56424581 -0.20924487 0.00000000)
		(2.58100559 -0.22051867 0.00000000)
		(2.59776536 -0.23006613 0.00000000)
		(2.61452514 -0.23781251 0.00000000)
		(2.63128492 -0.24369716 0.00000000)
		(2.64804469 -0.24767402 0.00000000)
		(2.66480447 -0.24971195 0.00000000)
		(2.68156425 -0.24979500 0.00000000)
		(2.69832402 -0.24792252 0.00000000)
		(2.71508380 -0.24410917 0.00000000)
		(2.73184358 -0.23838479 0.00000000)
		(2.74860335 -0.23079421 0.00000000)
		(2.76536313 -0.22139685 0.00000000)
		(2.78212291 -0.21026627 0.00000000)
		(2.79888268 -0.19748961 0.00000000)
		(2.81564246 -0.18316689 0.00000000)
		(2.83240223 -0.16741025 0.00000000)
		(2.84916201 -0.15034303 0.00000000)
		(2.86592179 -0.13209883 0.00000000)
		(2.88268156 -0.11282050 0.00000000)
		(2.89944134 -0.09265895 0.00000000)
		(2.91620112 -0.07177201 0.00000000)
		(2.93296089 -0.05032320 0.00000000)
		(2.95166480 -0.03359988 0.00000000)
		(2.97036872 -0.01863691 0.00000000)
		(2.98907263 -0.00543429 0.00000000)
		(3.00777654 0.00600798 0.00000000)
		(3.02648045 0.01568990 0.00000000)
		(3.04518436 0.02361147 0.00000000)
		(3.06388827 0.02977269 0.00000000)
		(3.08259218 0.03417356 0.00000000)
		(3.10129609 0.03681409 0.00000000)
		(3.12000000 0.03769426 0.00000000)
		(3.14000000 0.03769426 0.00000000)
		(3.16000000 0.03769426 0.00000000)
		(3.18000000 0.03769426 0.00000000)
		(3.20000000 0.03769426 0.00000000)
		(3.22000000 0.03769426 0.00000000)
		(3.24000000 0.03769426 0.00000000)
		(3.26000000 0.03769426 0.00000000)
		(3.28000000 0.03769426 0.00000000)
		(3.30000000 0.03769426 0.00000000)
		(3.32000000 0.03769426 0.00000000)
		(3.34000000 0.03769426 0.00000000)
		(3.36000000 0.03769426 0.00000000)
		(3.38000000 0.03769426 0.00000000)
		(3.40000000 0.03769426 0.00000000)
		(3.42000000 0.03769426 0.00000000)
		(3.44000000 0.03769426 0.00000000)
		(3.46000000 0.03769426 0.00000000)
		(3.48000000 0.03769426 0.00000000)
		(3.50000000 0.03769426 0.00000000)
		(3.52000000 0.03769426 0.00000000)
		(3.54000000 0.03769426 0.00000000)
		(3.56000000 0.03769426 0.00000000)
		(3.58000000 0.03769426 0.00000000)
		(3.60000000 0.03769426 0.00000000)
		(3.62000000 0.03769426 0.00000000)
		(3.64000000 0.03769426 0.00000000)
		(3.66000000 0.03769426 0.00000000)
		(3.68000000 0.03769426 0.00000000)
		(3.70000000 0.03769426 0.00000000)
		(3.72000000 0.03769426 0.00000000)
		(3.74000000 0.03769426 0.00000000)
		(3.76000000 0.03769426 0.00000000)
		(3.78000000 0.03769426 0.00000000)
		(3.80000000 0.03769426 0.00000000)
		(3.82000000 0.03769426 0.00000000)
		(3.84000000 0.03769426 0.00000000)
		(3.86000000 0.03769426 0.00000000)
		(3.88000000 0.03769426 0.00000000)
		(3.90000000 0.03769426 0.00000000)
		(3.92000000 0.03769426 0.00000000)
		(3.94000000 0.03769426 0.00000000)
		(3.96000000 0.03769426 0.00000000)
		(3.98000000 0.03769426 0.00000000)
		(4.00000000 0.03769426 0.00000000)
	)
	polyLine 4 5
	(
		(-1.00000000 -0.00409817 0.10000000)
		(-0.98000000 -0.00409817 0.10000000)
		(-0.96000000 -0.00409817 0.10000000)
		(-0.94000000 -0.00409817 0.10000000)
		(-0.92000000 -0.00409817 0.10000000)
		(-0.90000000 -0.00409817 0.10000000)
		(-0.88000000 -0.00409817 0.10000000)
		(-0.86000000 -0.00409817 0.10000000)
		(-0.84000000 -0.00409817 0.10000000)
		(-0.82000000 -0.00409817 0.10000000)
		(-0.80000000 -0.00409817 0.10000000)
		(-0.78000000 -0.00409817 0.10000000)
		(-0.76000000 -0.00409817 0.10000000)
		(-0.74000000 -0.00409817 0.10000000)
		(-0.72000000 -0.00409817 0.10000000)
		(-0.70000000 -0.00409817 0.10000000)
		(-0.68000000 -0.00409817 0.10000000)
		(-0.66000000 -0.00409817 0.10000000)
		(-0.64000000 -0.00409817 0.10000000)
		(-0.62000000 -0.00409817 0.10000000)
		(-0.60000000 -0.00409817 0.10000000)
		(-0.58000000 -0.00409817 0.10000000)
		(-0.56000000 -0.00409817 0.10000000)
		(-0.54000000 -0.00409817 0.10000000)
		(-0.52000000 -0.00409817 0.10000000)
		(-0.50000000 -0.00409817 0.10000000)
		(-0.48000000 -0.00409817 0.10000000)
		(-0.46000000 -0.00409817 0.10000000)
		(-0.44000000 -0.00409817 0.10000000)
		(-0.42000000 -0.00409817 0.10000000)
		(-0.40000000 -0.00409817 0.10000000)
		(-0.38000000 -0.00409817 0.10000000)
		(-0.36000000 -0.00409817 0.10000000)
		(-0.34000000 -0.00409817 0.10000000)
		(-0.32000000 -0.00409817 0.10000000)
		(-0.30000000 -0.00409817 0.10000000)
		(-0.28000000 -0.00409817 0.10000000)
		(-0.26000000 -0.00409817 0.10000000)
		(-0.24000000 -0.00409817 0.10000000)
		(-0.22000000 -0.00409817 0.10000000)
		(-0.20000000 -0.00409817 0.10000000)
		(-0.18000000 -0.00409817 0.10000000)
		(-0.16000000 -0.00409817 0.10000000)
		(-0.14000000 -0.00409817 0.10000000)
		(-0.12000000 -0.00409817 0.10000000)
		(-0.10000000 -0.00409817 0.10000000)
		(-0.08162011 -0.00516467 0.10000000)
		(-0.06324022 -0.00836416 0.10000000)
		(-0.04486034 -0.01369665 0.10000000)
		(-0.02648045 -0.02116214 0.10000000)
		(-0.00810056 -0.03076062 0.10000000)
		(0.01027933 -0.04249210 0.10000000)
		(0.02865922 -0.05635658 0.10000000)
		(0.04703911 -0.07235405 0.10000000)
		(0.06541899 -0.09048452 0.10000000)
		(0.08379888 -0.11074798 0.10000000)
		(0.10055866 -0.13012601 0.10000000)
		(0.11731844 -0.14848533 0.10000000)
		(0.13407821 -0.16568224 0.10000000)
		(0.15083799 -0.18158209 0.10000000)
		(0.16759777 -0.19606042 0.10000000)
		(0.18435754 -0.20900388 0.10000000)
		(0.20111732 -0.22031114 0.10000000)
		(0.21787709 -0.22989369 0.10000000)
		(0.23463687 -0.23767650 0.10000000)
		(0.25139665 -0.24359866 0.10000000)
		(0.26815642 -0.24761379 0.10000000)
		(0.28491620 -0.24969046 0.10000000)
		(0.30167598 -0.24981242 0.10000000)
		(0.31843575 -0.24797872 0.10000000)
		(0.33519553 -0.24420370 0.10000000)
		(0.35195531 -0.23851692 0.10000000)
		(0.36871508 -0.23096290 0.10000000)
		(0.38547486 -0.22160077 0.10000000)
		(0.40223464 -0.21050384 0.10000000)
		(0.41899441 -0.19775896 0.10000000)
		(0.43575419 -0.18346592 0.10000000)
		(0.45251397 -0.16773661 0.10000000)
		(0.46927374 -0.15069417 0.10000000)
		(0.48603352 -0.13247201 0.10000000)
		(0.50279330 -0.11321278 0.10000000)
		(0.51955307 -0.09306727 0.10000000)
		(0.53631285 -0.07219317 0.10000000)
		(0.55307263 -0.05075391 0.10000000)
		(0.56983240 -0.02891731 0.10000000)
		(0.58659218 -0.00685434 0.10000000)
		(0.60335196 0.01526230 0.10000000)
		(0.62011173 0.03725945 0.10000000)
		(0.63687151 0.05896491 0.10000000)
		(0.65363128 0.08020877 0.10000000)
		(0.67039106 0.10082470 0.10000000)
		(0.68715084 0.12065133 0.10000000)
		(0.70391061 0.13953343 0.10000000)
		(0.72067039 0.15732319 0.10000000)
		(0.73743017 0.17388134 0.10000000)
		(0.75418994 0.18907825 0.10000000)
		(0.77094972 0.20279495 0.10000000)
		(0.78770950 0.21492406 0.10000000)
		(0.80446927 0.22537063 0.10000000)
		(0.82122905 0.23405287 0.10000000)
		(0.83798883 0.24090282 0.10000000)
		(0.85474860 0.24586685 0.10000000)
		(0.87150838 0.24890610 0.10000000)
		(0.88826816 0.24999678 0.10000000)
		(0.90502793 0.24913035 0.10000000)
		(0.92178771 0.24631359 0.10000000)
		(0.93854749 0.24156855 0.10000000)
		(0.95530726 0.23493238 0.10000000)
		(0.97206704 0.22645704 0.10000000)
		(0.98882682 0.21620886 0.10000000)
		(1.00558659 0.20426808 0.10000000)
		(1.02234637 0.19072818 0.10000000)
		(1.03910615 0.17569516 0.10000000)
		(1.05586592 0.15928670 0.10000000)
		(1.07262570 0.14163125 0.10000000)
		(1.08938547 0.12286704 0.10000000)
		(1.10614525 0.10314096 0.10000000)
		(1.12290503 0.08260743 0.10000000)
		(1.13966480 0.06142721 0.10000000)
		(1.15642458 0.03976611 0.10000000)
		(1.17318436 0.01779369 0.10000000)
		(1.18994413 -0.00431803 0.10000000)
		(1.20670391 -0.02639594 0.10000000)
		(1.22346369 -0.04826721 0.10000000)
		(1.24022346 -0.06976062 0.10000000)
		(1.25698324 -0.09070791 0.10000000)
		(1.27374302 -0.11094508 0.10000000)
		(1.29050279 -0.13031371 0.10000000)
		(1.30726257 -0.14866218 0.10000000)
		(1.32402235 -0.16584684 0.10000000)
		(1.34078212 -0.18173316 0.10000000)
		(1.35754190 -0.19619677 0.10000000)
		(1.37430168 -0.20912445 0.10000000)
		(1.39106145 -0.22041499 0.10000000)
		(1.40782123 -0.22998000 0.10000000)
		(1.42458101 -0.23774460 0.10000000)
		(1.44134078 -0.24364800 0.10000000)
		(1.45810056 -0.24764400 0.10000000)
		(1.47486034 -0.24970130 0.10000000)
		(1.49162011 -0.24980381 0.10000000)
		(1.50837989 -0.24795071 0.10000000)
		(1.52513966 -0.24415653 0.10000000)
		(1.54189944 -0.23845095 0.10000000)
		(1.55865922 -0.23087864 0.10000000)
		(1.57541899 -0.22149890 0.10000000)
		(1.59217877 -0.21038513 0.10000000)
		(1.60893855 -0.19762436 0.10000000)
		(1.62569832 -0.18331648 0.10000000)
		(1.64245810 -0.16757350 0.10000000)
		(1.65921788 -0.15051865 0.10000000)
		(1.67597765 -0.13228547 0.10000000)
		(1.69273743 -0.11301669 0.10000000)
		(1.70949721 -0.09286314 0.10000000)
		(1.72625698 -0.07198262 0.10000000)
		(1.74301676 -0.05053857 0.10000000)
		(1.75977654 -0.02869888 0.10000000)
		(1.77653631 -0.00663453 0.10000000)
		(1.79329609 0.01548177 0.10000000)
		(1.81005587 0.03747687 0.10000000)
		(1.82681564 0.05917858 0.10000000)
		(1.84357542 0.08041700 0.10000000)
		(1.86033520 0.10102588 0.10000000)
		(1.87709497 0.12084387 0.10000000)
		(1.89385475 0.13971583 0.10000000)
		(1.91061453 0.15749402 0.10000000)
		(1.92737430 0.17403926 0.10000000)
		(1.94413408 0.18922203 0.10000000)
		(1.96089385 0.20292346 0.10000000)
		(1.97765363 0.21503630 0.10000000)
		(1.99441341 0.22546571 0.10000000)
		(2.01117318 0.23413006 0.10000000)
		(2.02793296 0.24096151 0.10000000)
		(2.04469274 0.24590658 0.10000000)
		(2.06145251 0.24892655 0.10000000)
		(2.07821229 0.24999780 0.10000000)
		(2.09497207 0.24911193 0.10000000)
		(2.11173184 0.24627587 0.10000000)
		(2.12849162 0.24151183 0.10000000)
		(2.14525140 0.23485711 0.10000000)
		(2.16201117 0.22636379 0.10000000)
		(2.17877095 0.21609838 0.10000000)
		(2.19553073 0.20414123 0.10000000)
		(2.21229050 0.19058595 0.10000000)
		(2.22905028 0.17553866 0.10000000)
		(2.24581006 0.15911716 0.10000000)
		(2.26256983 0.14145000 0.10000000)
		(2.27932961 0.12267549 0.10000000)
		(2.29608939 0.10294061 0.10000000)
		(2.31284916 0.08239986 0.10000000)
		(2.32960894 0.06121404 0.10000000)
		(2.34636872 0.03954900 0.10000000)
		(2.36312849 0.01757435 0.10000000)
		(2.37988827 -0.00453789 0.10000000)
		(2.39664804 -0.02661459 0.10000000)
		(2.41340782 -0.04848295 0.10000000)
		(2.43016760 -0.06997175 0.10000000)
		(2.44692737 -0.09091278 0.10000000)
		(2.46368715 -0.11114209 0.10000000)
		(2.48044693 -0.13050132 0.10000000)
		(2.49720670 -0.14883891 0.10000000)
		(2.51396648 -0.16601132 0.10000000)
		(2.53072626 -0.18188409 0.10000000)
		(2.54748603 -0.19633298 0.10000000)
		(2.56424581 -0.20924487 0.10000000)
		(2.58100559 -0.22051867 0.10000000)
		(2.59776536 -0.23006613 0.10000000)
		(2.61452514 -0.23781251 0.10000000)
		(2.63128492 -0.24369716 0.10000000)
		(2.64804469 -0.24767402 0.10000000)
		(2.66480447 -0.24971195 0.10000000)
		(2.68156425 -0.24979500 0.10000000)
		(2.69832402 -0.24792252 0.10000000)
		(2.71508380 -0.24410917 0.10000000)
		(2.73184358 -0.23838479 0.10000000)
		(2.74860335 -0.23079421 0.10000000)
		(2.76536313 -0.22139685 0.10000000)
		(2.78212291 -0.21026627 0.10000000)
		(2.79888268 -0.19748961 0.10000000)
		(2.81564246 -0.18316689 0.10000000)
		(2.83240223 -0.16741025 0.10000000)
		(2.84916201 -0.15034303 0.10000000)
		(2.86592179 -0.13209883 0.10000000)
		(2.88268156 -0.11282050 0.10000000)
		(2.89944134 -0.09265895 0.10000000)
		(2.91620112 -0.07177201 0.10000000)
		(2.93296089 -0.05032320 0.10000000)
		(2.95166480 -0.03359988 0.10000000)
		(2.97036872 -0.01863691 0.10000000)
		(2.98907263 -0.00543429 0.10000000)
		(3.00777654 0.00600798 0.10000000)
		(3.02648045 0.01568990 0.10000000)
		(3.04518436 0.02361147 0.10000000)
		(3.06388827 0.02977269 0.10000000)
		(3.08259218 0.03417356 0.10000000)
		(3.10129609 0.03681409 0.10000000)
		(3.12000000 0.03769426 0.10000000)
		(3.14000000 0.03769426 0.10000000)
		(3.16000000 0.03769426 0.10000000)
		(3.18000000 0.03769426 0.10000000)
		(3.20000000 0.03769426 0.10000000)
		(3.22000000 0.03769426 0.10000000)
		(3.24000000 0.03769426 0.10000000)
		(3.26000000 0.03769426 0.10000000)
		(3.28000000 0.03769426 0.10000000)
		(3.30000000 0.03769426 0.10000000)
		(3.32000000 0.03769426 0.10000000)
		(3.34000000 0.03769426 0.10000000)
		(3.36000000 0.03769426 0.10000000)
		(3.38000000 0.03769426 0.10000000)
		(3.40000000 0.03769426 0.10000000)
		(3.42000000 0.03769426 0.10000000)
		(3.44000000 0.03769426 0.10000000)
		(3.46000000 0.03769426 0.10000000)
		(3.48000000 0.03769426 0.10000000)
		(3.50000000 0.03769426 0.10000000)
		(3.52000000 0.03769426 0.10000000)
		(3.54000000 0.03769426 0.10000000)
		(3.56000000 0.03769426 0.10000000)
		(3.58000000 0.03769426 0.10000000)
		(3.60000000 0.03769426 0.10000000)
		(3.62000000 0.03769426 0.10000000)
		(3.64000000 0.03769426 0.10000000)
		(3.66000000 0.03769426 0.10000000)
		(3.68000000 0.03769426 0.10000000)
		(3.70000000 0.03769426 0.10000000)
		(3.72000000 0.03769426 0.10000000)
		(3.74000000 0.03769426 0.10000000)
		(3.76000000 0.03769426 0.10000000)
		(3.78000000 0.03769426 0.10000000)
		(3.80000000 0.03769426 0.10000000)
		(3.82000000 0.03769426 0.10000000)
		(3.84000000 0.03769426 0.10000000)
		(3.86000000 0.03769426 0.10000000)
		(3.88000000 0.03769426 0.10000000)
		(3.90000000 0.03769426 0.10000000)
		(3.92000000 0.03769426 0.10000000)
		(3.94000000 0.03769426 0.10000000)
		(3.96000000 0.03769426 0.10000000)
		(3.98000000 0.03769426 0.10000000)
		(4.00000000 0.03769426 0.10000000)
	)
	polyLine 3 2
	(
		(-1.00000000 0.49590183 0.00000000)
		(-0.98000000 0.49588209 0.00000000)
		(-0.96000000 0.49586234 0.00000000)
		(-0.94000000 0.49584260 0.00000000)
		(-0.92000000 0.49582285 0.00000000)
		(-0.90000000 0.49580311 0.00000000)
		(-0.88000000 0.49578336 0.00000000)
		(-0.86000000 0.49576362 0.00000000)
		(-0.84000000 0.49574387 0.00000000)
		(-0.82000000 0.49572413 0.00000000)
		(-0.80000000 0.49570438 0.00000000)
		(-0.78000000 0.49568464 0.00000000)
		(-0.76000000 0.49566489 0.00000000)
		(-0.74000000 0.49564515 0.00000000)
		(-0.72000000 0.49562540 0.00000000)
		(-0.70000000 0.49560566 0.00000000)
		(-0.68000000 0.49558591 0.00000000)
		(-0.66000000 0.49556617 0.00000000)
		(-0.64000000 0.49554642 0.00000000)
		(-0.62000000 0.49552668 0.00000000)
		(-0.60000000 0.49550693 0.00000000)
		(-0.58000000 0.49548718 0.00000000)
		(-0.56000000 0.49546744 0.00000000)
		(-0.54000000 0.49544769 0.00000000)
		(-0.52000000 0.49542795 0.00000000)
		(-0.50000000 0.49540820 0.00000000)
		(-0.48000000 0.49538846 0.00000000)
		(-0.46000000 0.49536871 0.00000000)
		(-0.44000000 0.49534897 0.00000000)
		(-0.42000000 0.49532922 0.00000000)
		(-0.40000000 0.49530948 0.00000000)
		(-0.38000000 0.49528973 0.00000000)
		(-0.36000000 0.49526999 0.00000000)
		(-0.34000000 0.49525024 0.00000000)
		(-0.32000000 0.49523050 0.00000000)
		(-0.30000000 0.49521075 0.00000000)
		(-0.28000000 0.49519101 0.00000000)
		(-0.26000000 0.49517126 0.00000000)
		(-0.24000000 0.49515152 0.00000000)
		(-0.22000000 0.49513177 0.00000000)
		(-0.20000000 0.49511203 0.00000000)
		(-0.18000000 0.49509228 0.00000000)
		(-0.16000000 0.49507254 0.00000000)
		(-0.14000000 0.49505279 0.00000000)
		(-0.12000000 0.49503305 0.00000000)
		(-0.10000000 0.49501330 0.00000000)
		(-0.08162011 0.49588213 0.00000000)
		(-0.06324022 0.49362661 0.00000000)
		(-0.04486034 0.48824675 0.00000000)
		(-0.02648045 0.47974255 0.00000000)
		(-0.00810056 0.46811401 0.00000000)
		(0.01027933 0.45336113 0.00000000)
		(0.02865922 0.43548391 0.00000000)
		(0.04703911 0.41448235 0.00000000)
		(0.06541899 0.39035645 0.00000000)
		(0.08379888 0.36310621 0.00000000)
		(0.10055866 0.33915335 0.00000000)
		(0.11731844 0.31645968 0.00000000)
		(0.13407821 0.29520287 0.00000000)
		(0.15083799 0.27554932 0.00000000)
		(0.16759777 0.25765289 0.00000000)
		(0.18435754 0.24165369 0.00000000)
		(0.20111732 0.22767697 0.00000000)
		(0.21787709 0.21583213 0.00000000)
		(0.23463687 0.20621192 0.00000000)
		(0.25139665 0.19889164 0.00000000)
		(0.26815642 0.19392861 0.00000000)
		(0.28491620 0.19136166 0.00000000)
		(0.30167598 0.19121091 0.00000000)
		(0.31843575 0.19347753 0.00000000)
		(0.33519553 0.19814377 0.00000000)
		(0.35195531 0.20517310 0.00000000)
		(0.36871508 0.21451050 0.00000000)
		(0.38547486 0.22608287 0.00000000)
		(0.40223464 0.23979962 0.00000000)
		(0.41899441 0.25555335 0.00000000)
		(0.43575419 0.27322074 0.00000000)
		(0.45251397 0.29266349 0.00000000)
		(0.46927374 0.31372938 0.00000000)
		(0.48603352 0.33625350 0.00000000)
		(0.50279330 0.36005951 0.00000000)
		(0.51955307 0.38496106 0.00000000)
		(0.53631285 0.41076319 0.00000000)
		(0.55307263 0.43726392 0.00000000)
		(0.56983240 0.46425578 0.00000000)
		(0.58659218 0.49152746 0.00000000)
		(0.60335196 0.51886548 0.00000000)
		(0.62011173 0.54605580 0.00000000)
		(0.63687151 0.57288557 0.00000000)
		(0.65363128 0.59914476 0.00000000)
		(0.67039106 0.62462778 0.00000000)
		(0.68715084 0.64913516 0.00000000)
		(0.70391061 0.67247502 0.00000000)
		(0.72067039 0.69446465 0.00000000)
		(0.73743017 0.71493191 0.00000000)
		(0.75418994 0.73371656 0.00000000)
		(0.77094972 0.75067155 0.00000000)
		(0.78770950 0.76566415 0.00000000)
		(0.80446927 0.77857698 0.00000000)
		(0.82122905 0.78930896 0.00000000)
		(0.83798883 0.79777607 0.00000000)
		(0.85474860 0.80391203 0.00000000)
		(0.87150838 0.80766880 0.00000000)
		(0.88826816 0.80901697 0.00000000)
		(0.90502793 0.80794599 0.00000000)
		(0.92178771 0.80446424 0.00000000)
		(0.93854749 0.79859897 0.00000000)
		(0.95530726 0.79039611 0.00000000)
		(0.97206704 0.77991987 0.00000000)
		(0.98882682 0.76725227 0.00000000)
		(1.00558659 0.75249247 0.00000000)
		(1.02234637 0.73575602 0.00000000)
		(1.03910615 0.71717394 0.00000000)
		(1.05586592 0.69689171 0.00000000)
		(1.07262570 0.67506810 0.00000000)
		(1.08938547 0.65187396 0.00000000)
		(1.10614525 0.62749087 0.00000000)
		(1.12290503 0.60210971 0.00000000)
		(1.13966480 0.57592918 0.00000000)
		(1.15642458 0.54915424 0.00000000)
		(1.17318436 0.52199449 0.00000000)
		(1.18994413 0.49466255 0.00000000)
		(1.20670391 0.46737240 0.00000000)
		(1.22346369 0.44033768 0.00000000)
		(1.24022346 0.41377003 0.00000000)
		(1.25698324 0.38787743 0.00000000)
		(1.27374302 0.36286258 0.00000000)
		(1.29050279 0.33892133 0.00000000)
		(1.30726257 0.31624108 0.00000000)
		(1.32402235 0.29499940 0.00000000)
		(1.34078212 0.27536258 0.00000000)
		(1.35754190 0.25748434 0.00000000)
		(1.37430168 0.24150465 0.00000000)
		(1.39106145 0.22754860 0.00000000)
		(1.40782123 0.21572545 0.00000000)
		(1.42458101 0.20612775 0.00000000)
		(1.44134078 0.19883065 0.00000000)
		(1.45810056 0.19389126 0.00000000)
		(1.47486034 0.19134826 0.00000000)
		(1.49162011 0.19122156 0.00000000)
		(1.50837989 0.19351214 0.00000000)
		(1.52513966 0.19820207 0.00000000)
		(1.54189944 0.20525465 0.00000000)
		(1.55865922 0.21461465 0.00000000)
		(1.57541899 0.22620880 0.00000000)
		(1.59217877 0.23994634 0.00000000)
		(1.60893855 0.25571973 0.00000000)
		(1.62569832 0.27340547 0.00000000)
		(1.64245810 0.29286512 0.00000000)
		(1.65921788 0.31394633 0.00000000)
		(1.67597765 0.33648407 0.00000000)
		(1.69273743 0.36030191 0.00000000)
		(1.70949721 0.38521337 0.00000000)
		(1.72625698 0.41102345 0.00000000)
		(1.74301676 0.43753009 0.00000000)
		(1.75977654 0.46452577 0.00000000)
		(1.77653631 0.49179917 0.00000000)
		(1.79329609 0.51913677 0.00000000)
		(1.81005587 0.54632455 0.00000000)
		(1.82681564 0.57314968 0.00000000)
		(1.84357542 0.59940216 0.00000000)
		(1.86033520 0.62487646 0.00000000)
		(1.87709497 0.64937316 0.00000000)
		(1.89385475 0.67270048 0.00000000)
		(1.91061453 0.69467581 0.00000000)
		(1.92737430 0.71512711 0.00000000)
		(1.94413408 0.73389428 0.00000000)
		(1.96089385 0.75083040 0.00000000)
		(1.97765363 0.76580288 0.00000000)
		(1.99441341 0.77869451 0.00000000)
		(2.01117318 0.78940437 0.00000000)
		(2.02793296 0.79784861 0.00000000)
		(2.04469274 0.80396114 0.00000000)
		(2.06145251 0.80769408 0.00000000)
		(2.07821229 0.80901823 0.00000000)
		(2.09497207 0.80792322 0.00000000)
		(2.11173184 0.80441762 0.00000000)
		(2.12849162 0.79852886 0.00000000)
		(2.14525140 0.79030307 0.00000000)
		(2.16201117 0.77980462 0.00000000)
		(2.17877095 0.76711570 0.00000000)
		(2.19553073 0.75233566 0.00000000)
		(2.21229050 0.73558020 0.00000000)
		(2.22905028 0.71698049 0.00000000)
		(2.24581006 0.69668214 0.00000000)
		(2.26256983 0.67484405 0.00000000)
		(2.27932961 0.65163719 0.00000000)
		(2.29608939 0.62724323 0.00000000)
		(2.31284916 0.60185313 0.00000000)
		(2.32960894 0.57566568 0.00000000)
		(2.34636872 0.54888588 0.00000000)
		(2.36312849 0.52172337 0.00000000)
		(2.37988827 0.49439079 0.00000000)
		(2.39664804 0.46710213 0.00000000)
		(2.41340782 0.44007101 0.00000000)
		(2.43016760 0.41350905 0.00000000)
		(2.44692737 0.38762419 0.00000000)
		(2.46368715 0.36261906 0.00000000)
		(2.48044693 0.33868943 0.00000000)
		(2.49720670 0.31602263 0.00000000)