/*--------------------------------*- C++ -*----------------------------------*\\
/*--------------------------------*- C++ -*----------------------------------*\\
| =========                 |                                                 |
| \\\\      /  F ield         | OpenFOAM: The Open Source CFD Toolbox           |
|  \\\\    /   O peration     | Version:  v2012                                 |
|   \\\\  /    A nd           | Website:  www.openfoam.com                      |
|    \\\\/     M anipulation  |                                                 |
\\*---------------------------------------------------------------------------*/
FoamFile
{
    version     2.0;
    format      ascii;
    class       dictionary;
    object      blockMeshDict;
}
// * * * * * * * * * * * * * * * * * * * * * * * * * * * * * * * * * * * * * //

scale   0.01;

xmin -1;
xmax 5;
ymin 0;
ymax 0.5;
zmin 0;
zmax 0.1;

vertices
(
    (-1.00000000 -0.13850050 0.00000000)
    (4.00000000 0.15035176 0.00000000)
    (4.00000000 0.65035176 0.00000000)
    (-1.00000000 0.36149950 0.00000000)
    (-1.00000000 -0.13850050 0.10000000)
    (4.00000000 0.15035176 0.10000000)
    (4.00000000 0.65035176 0.10000000)
    (-1.00000000 0.36149950 0.10000000)
);

blocks
(
    hex (0 1 2 3 4 5 6 7) (200 20 1) simpleGrading (1 1 1)
);

edges
(
	polyLine 0 1
	(
		(-1.00000000 -0.13850050 0.00000000)
		(-0.98000000 -0.13850050 0.00000000)
		(-0.96000000 -0.13850050 0.00000000)
		(-0.94000000 -0.13850050 0.00000000)
		(-0.92000000 -0.13850050 0.00000000)
		(-0.90000000 -0.13850050 0.00000000)
		(-0.88000000 -0.13850050 0.00000000)
		(-0.86000000 -0.13850050 0.00000000)
		(-0.84000000 -0.13850050 0.00000000)
		(-0.82000000 -0.13850050 0.00000000)
		(-0.80000000 -0.13850050 0.00000000)
		(-0.78000000 -0.13850050 0.00000000)
		(-0.76000000 -0.13850050 0.00000000)
		(-0.74000000 -0.13850050 0.00000000)
		(-0.72000000 -0.13850050 0.00000000)
		(-0.70000000 -0.13850050 0.00000000)
		(-0.68000000 -0.13850050 0.00000000)
		(-0.66000000 -0.13850050 0.00000000)
		(-0.64000000 -0.13850050 0.00000000)
		(-0.62000000 -0.13850050 0.00000000)
		(-0.60000000 -0.13850050 0.00000000)
		(-0.58000000 -0.13850050 0.00000000)
		(-0.56000000 -0.13850050 0.00000000)
		(-0.54000000 -0.13850050 0.00000000)
		(-0.52000000 -0.13850050 0.00000000)
		(-0.50000000 -0.13850050 0.00000000)
		(-0.48000000 -0.13850050 0.00000000)
		(-0.46000000 -0.13850050 0.00000000)
		(-0.44000000 -0.13850050 0.00000000)
		(-0.42000000 -0.13850050 0.00000000)
		(-0.40000000 -0.13850050 0.00000000)
		(-0.38000000 -0.13850050 0.00000000)
		(-0.36000000 -0.13850050 0.00000000)
		(-0.34000000 -0.13850050 0.00000000)
		(-0.32000000 -0.13850050 0.00000000)
		(-0.30000000 -0.13850050 0.00000000)
		(-0.28000000 -0.13850050 0.00000000)
		(-0.26000000 -0.13850050 0.00000000)
		(-0.24000000 -0.13850050 0.00000000)
		(-0.22000000 -0.13850050 0.00000000)
		(-0.20000000 -0.13850050 0.00000000)
		(-0.18000000 -0.13850050 0.00000000)
		(-0.16000000 -0.13850050 0.00000000)
		(-0.14000000 -0.13850050 0.00000000)
		(-0.12000000 -0.13850050 0.00000000)
		(-0.10000000 -0.13850050 0.00000000)
		(-0.08162011 -0.13899707 0.00000000)
		(-0.06324022 -0.14048679 0.00000000)
		(-0.04486034 -0.14296965 0.00000000)
		(-0.02648045 -0.14644565 0.00000000)
		(-0.00810056 -0.15091480 0.00000000)
		(0.01027933 -0.15637709 0.00000000)
		(0.02865922 -0.16283253 0.00000000)
		(0.04703911 -0.17028111 0.00000000)
		(0.06541899 -0.17872283 0.00000000)
		(0.08379888 -0.18815770 0.00000000)
		(0.10055866 -0.19661022 0.00000000)
		(0.11731844 -0.20451107 0.00000000)
		(0.13407821 -0.21183808 0.00000000)
		(0.15083799 -0.21857070 0.00000000)
		(0.16759777 -0.22469002 0.00000000)
		(0.18435754 -0.23017889 0.00000000)
		(0.20111732 -0.23502190 0.00000000)
		(0.21787709 -0.23920546 0.00000000)
		(0.23463687 -0.24271784 0.00000000)
		(0.25139665 -0.24554917 0.00000000)
		(0.26815642 -0.24769152 0.00000000)
		(0.28491620 -0.24913886 0.00000000)
		(0.30167598 -0.24988715 0.00000000)
		(0.31843575 -0.24993428 0.00000000)
		(0.33519553 -0.24928012 0.00000000)
		(0.35195531 -0.24792650 0.00000000)
		(0.36871508 -0.24587723 0.00000000)
		(0.38547486 -0.24313805 0.00000000)
		(0.40223464 -0.23971664 0.00000000)
		(0.41899441 -0.23562262 0.00000000)
		(0.43575419 -0.23086746 0.00000000)
		(0.45251397 -0.22546451 0.00000000)
		(0.46927374 -0.21942893 0.00000000)
		(0.48603352 -0.21277765 0.00000000)
		(0.50279330 -0.20552934 0.00000000)
		(0.51955307 -0.19770434 0.00000000)
		(0.53631285 -0.18932459 0.00000000)
		(0.55307263 -0.18041362 0.00000000)
		(0.56983240 -0.17099643 0.00000000)
		(0.58659218 -0.16109944 0.00000000)
		(0.60335196 -0.15075042 0.00000000)
		(0.62011173 -0.13997840 0.00000000)
		(0.63687151 -0.12881363 0.00000000)
		(0.65363128 -0.11728741 0.00000000)
		(0.67039106 -0.10543210 0.00000000)
		(0.68715084 -0.09328095 0.00000000)
		(0.70391061 -0.08086807 0.00000000)
		(0.72067039 -0.06822828 0.00000000)
		(0.73743017 -0.05539704 0.00000000)
		(0.75418994 -0.04241037 0.00000000)
		(0.77094972 -0.02930470 0.00000000)
		(0.78770950 -0.01611681 0.00000000)
		(0.80446927 -0.00288369 0.00000000)
		(0.82122905 0.01035752 0.00000000)
		(0.83798883 0.02356967 0.00000000)
		(0.85474860 0.03671568 0.00000000)
		(0.87150838 0.04975868 0.00000000)
		(0.88826816 0.06266205 0.00000000)
		(0.90502793 0.07538960 0.00000000)
		(0.92178771 0.08790562 0.00000000)
		(0.93854749 0.10017498 0.00000000)
		(0.95530726 0.11216326 0.00000000)
		(0.97206704 0.12383682 0.00000000)
		(0.98882682 0.13516291 0.00000000)
		(1.00558659 0.14610974 0.00000000)
		(1.02234637 0.15664661 0.00000000)
		(1.03910615 0.16674393 0.00000000)
		(1.05586592 0.17637340 0.00000000)
		(1.07262570 0.18550797 0.00000000)
		(1.08938547 0.19412203 0.00000000)
		(1.10614525 0.20219140 0.00000000)
		(1.12290503 0.20969344 0.00000000)
		(1.13966480 0.21660710 0.00000000)
		(1.15642458 0.22291299 0.00000000)
		(1.17318436 0.22859340 0.00000000)
		(1.18994413 0.23363240 0.00000000)
		(1.20670391 0.23801585 0.00000000)
		(1.22346369 0.24173146 0.00000000)
		(1.24022346 0.24476879 0.00000000)
		(1.25698324 0.24711932 0.00000000)
		(1.27374302 0.24877646 0.00000000)
		(1.29050279 0.24973555 0.00000000)
		(1.30726257 0.24999391 0.00000000)
		(1.32402235 0.24955082 0.00000000)
		(1.34078212 0.24840751 0.00000000)
		(1.35754190 0.24656719 0.00000000)
		(1.37430168 0.24403503 0.00000000)
		(1.39106145 0.24081813 0.00000000)
		(1.40782123 0.23692552 0.00000000)
		(1.42458101 0.23236812 0.00000000)
		(1.44134078 0.22715872 0.00000000)
		(1.45810056 0.22131193 0.00000000)
		(1.47486034 0.21484416 0.00000000)
		(1.49162011 0.20777356 0.00000000)
		(1.50837989 0.20011997 0.00000000)
		(1.52513966 0.19190486 0.00000000)
		(1.54189944 0.18315129 0.00000000)
		(1.55865922 0.17388381 0.00000000)
		(1.57541899 0.16412843 0.00000000)
		(1.59217877 0.15391252 0.00000000)
		(1.60893855 0.14326475 0.00000000)
		(1.62569832 0.13221499 0.00000000)
		(1.64245810 0.12079425 0.00000000)
		(1.65921788 0.10903458 0.00000000)
		(1.67597765 0.09696896 0.00000000)
		(1.69273743 0.08463126 0.00000000)
		(1.70949721 0.07205609 0.00000000)
		(1.72625698 0.05927873 0.00000000)
		(1.74301676 0.04633505 0.00000000)
		(1.75977654 0.03326136 0.00000000)
		(1.77653631 0.02009433 0.00000000)
		(1.79329609 0.00687093 0.00000000)
		(1.81005587 -0.00637175 0.00000000)
		(1.82681564 -0.01959656 0.00000000)
		(1.84357542 -0.03276638 0.00000000)
		(1.86033520 -0.04584426 0.00000000)
		(1.87709497 -0.05879351 0.00000000)
		(1.89385475 -0.07157778 0.00000000)
		(1.91061453 -0.08416122 0.00000000)
		(1.92737430 -0.09650851 0.00000000)
		(1.94413408 -0.10858500 0.00000000)
		(1.96089385 -0.12035682 0.00000000)
		(1.97765363 -0.13179093 0.00000000)
		(1.99441341 -0.14285524 0.00000000)
		(2.01117318 -0.15351872 0.00000000)
		(2.02793296 -0.16375144 0.00000000)
		(2.04469274 -0.17352468 0.00000000)
		(2.06145251 -0.18281104 0.00000000)
		(2.07821229 -0.19158444 0.00000000)
		(2.09497207 -0.19982028 0.00000000)
		(2.11173184 -0.20749544 0.00000000)
		(2.12849162 -0.21458839 0.00000000)
		(2.14525140 -0.22107923 0.00000000)
		(2.16201117 -0.22694974 0.00000000)
		(2.17877095 -0.23218345 0.00000000)
		(2.19553073 -0.23676568 0.00000000)
		(2.21229050 -0.24068356 0.00000000)
		(2.22905028 -0.24392611 0.00000000)
		(2.24581006 -0.24648423 0.00000000)
		(2.26256983 -0.24835074 0.00000000)
		(2.27932961 -0.24952040 0.00000000)
		(2.29608939 -0.24998993 0.00000000)
		(2.31284916 -0.24975802 0.00000000)
		(2.32960894 -0.24882530 0.00000000)
		(2.34636872 -0.24719441 0.00000000)
		(2.36312849 -0.24486991 0.00000000)
		(2.37988827 -0.24185834 0.00000000)
		(2.39664804 -0.23816813 0.00000000)
		(2.41340782 -0.23380965 0.00000000)
		(2.43016760 -0.22879512 0.00000000)
		(2.44692737 -0.22313861 0.00000000)
		(2.46368715 -0.21685600 0.00000000)
		(2.48044693 -0.20996491 0.00000000)
		(2.49720670 -0.20248468 0.00000000)
		(2.51396648 -0.19443630 0.00000000)
		(2.53072626 -0.18584235 0.00000000)
		(2.54748603 -0.17672694 0.00000000)
		(2.56424581 -0.16711566 0.00000000)
		(2.58100559 -0.15703546 0.00000000)
		(2.59776536 -0.14651464 0.00000000)
		(2.61452514 -0.13558272 0.00000000)
		(2.63128492 -0.12427036 0.00000000)
		(2.64804469 -0.11260931 0.00000000)
		(2.66480447 -0.10063229 0.00000000)
		(2.68156425 -0.08837291 0.00000000)
		(2.69832402 -0.07586556 0.00000000)
		(2.71508380 -0.06314534 0.00000000)
		(2.73184358 -0.05024794 0.00000000)
		(2.74860335 -0.03720955 0.00000000)
		(2.76536313 -0.02406675 0.00000000)
		(2.78212291 -0.01085642 0.00000000)
		(2.79888268 0.00238436 0.00000000)
		(2.81564246 0.01561846 0.00000000)
		(2.83240223 0.02880874 0.00000000)
		(2.84916201 0.04191818 0.00000000)
		(2.86592179 0.05491000 0.00000000)
		(2.88268156 0.06774775 0.00000000)
		(2.89944134 0.08039540 0.00000000)
		(2.91620112 0.09281748 0.00000000)
		(2.93296089 0.10497911 0.00000000)
		(2.95166480 0.11359992 0.00000000)
		(2.97036872 0.12131327 0.00000000)
		(2.98907263 0.12811916 0.00000000)
		(3.00777654 0.13401761 0.00000000)
		(3.02648045 0.13900860 0.00000000)
		(3.04518436 0.14309214 0.00000000)
		(3.06388827 0.14626823 0.00000000)
		(3.08259218 0.14853686 0.00000000)
		(3.10129609 0.14989804 0.00000000)
		(3.12000000 0.15035176 0.00000000)
		(3.14000000 0.15035176 0.00000000)
		(3.16000000 0.15035176 0.00000000)
		(3.18000000 0.15035176 0.00000000)
		(3.20000000 0.15035176 0.00000000)
		(3.22000000 0.15035176 0.00000000)
		(3.24000000 0.15035176 0.00000000)
		(3.26000000 0.15035176 0.00000000)
		(3.28000000 0.15035176 0.00000000)
		(3.30000000 0.15035176 0.00000000)
		(3.32000000 0.15035176 0.00000000)
		(3.34000000 0.15035176 0.00000000)
		(3.36000000 0.15035176 0.00000000)
		(3.38000000 0.15035176 0.00000000)
		(3.40000000 0.15035176 0.00000000)
		(3.42000000 0.15035176 0.00000000)
		(3.44000000 0.15035176 0.00000000)
		(3.46000000 0.15035176 0.00000000)
		(3.48000000 0.15035176 0.00000000)
		(3.50000000 0.15035176 0.00000000)
		(3.52000000 0.15035176 0.00000000)
		(3.54000000 0.15035176 0.00000000)
		(3.56000000 0.15035176 0.00000000)
		(3.58000000 0.15035176 0.00000000)
		(3.60000000 0.15035176 0.00000000)
		(3.62000000 0.15035176 0.00000000)
		(3.64000000 0.15035176 0.00000000)
		(3.66000000 0.15035176 0.00000000)
		(3.68000000 0.15035176 0.00000000)
		(3.70000000 0.15035176 0.00000000)
		(3.72000000 0.15035176 0.00000000)
		(3.74000000 0.15035176 0.00000000)
		(3.76000000 0.15035176 0.00000000)
		(3.78000000 0.15035176 0.00000000)
		(3.80000000 0.15035176 0.00000000)
		(3.82000000 0.15035176 0.00000000)
		(3.84000000 0.15035176 0.00000000)
		(3.86000000 0.15035176 0.00000000)
		(3.88000000 0.15035176 0.00000000)
		(3.90000000 0.15035176 0.00000000)
		(3.92000000 0.15035176 0.00000000)
		(3.94000000 0.15035176 0.00000000)
		(3.96000000 0.15035176 0.00000000)
		(3.98000000 0.15035176 0.00000000)
		(4.00000000 0.15035176 0.00000000)
	)
	polyLine 4 5
	(
		(-1.00000000 -0.13850050 0.10000000)
		(-0.98000000 -0.13850050 0.10000000)
		(-0.96000000 -0.13850050 0.10000000)
		(-0.94000000 -0.13850050 0.10000000)
		(-0.92000000 -0.13850050 0.10000000)
		(-0.90000000 -0.13850050 0.10000000)
		(-0.88000000 -0.13850050 0.10000000)
		(-0.86000000 -0.13850050 0.10000000)
		(-0.84000000 -0.13850050 0.10000000)
		(-0.82000000 -0.13850050 0.10000000)
		(-0.80000000 -0.13850050 0.10000000)
		(-0.78000000 -0.13850050 0.10000000)
		(-0.76000000 -0.13850050 0.10000000)
		(-0.74000000 -0.13850050 0.10000000)
		(-0.72000000 -0.13850050 0.10000000)
		(-0.70000000 -0.13850050 0.10000000)
		(-0.68000000 -0.13850050 0.10000000)
		(-0.66000000 -0.13850050 0.10000000)
		(-0.64000000 -0.13850050 0.10000000)
		(-0.62000000 -0.13850050 0.10000000)
		(-0.60000000 -0.13850050 0.10000000)
		(-0.58000000 -0.13850050 0.10000000)
		(-0.56000000 -0.13850050 0.10000000)
		(-0.54000000 -0.13850050 0.10000000)
		(-0.52000000 -0.13850050 0.10000000)
		(-0.50000000 -0.13850050 0.10000000)
		(-0.48000000 -0.13850050 0.10000000)
		(-0.46000000 -0.13850050 0.10000000)
		(-0.44000000 -0.13850050 0.10000000)
		(-0.42000000 -0.13850050 0.10000000)
		(-0.40000000 -0.13850050 0.10000000)
		(-0.38000000 -0.13850050 0.10000000)
		(-0.36000000 -0.13850050 0.10000000)
		(-0.34000000 -0.13850050 0.10000000)
		(-0.32000000 -0.13850050 0.10000000)
		(-0.30000000 -0.13850050 0.10000000)
		(-0.28000000 -0.13850050 0.10000000)
		(-0.26000000 -0.13850050 0.10000000)
		(-0.24000000 -0.13850050 0.10000000)
		(-0.22000000 -0.13850050 0.10000000)
		(-0.20000000 -0.13850050 0.10000000)
		(-0.18000000 -0.13850050 0.10000000)
		(-0.16000000 -0.13850050 0.10000000)
		(-0.14000000 -0.13850050 0.10000000)
		(-0.12000000 -0.13850050 0.10000000)
		(-0.10000000 -0.13850050 0.10000000)
		(-0.08162011 -0.13899707 0.10000000)
		(-0.06324022 -0.14048679 0.10000000)
		(-0.04486034 -0.14296965 0.10000000)
		(-0.02648045 -0.14644565 0.10000000)
		(-0.00810056 -0.15091480 0.10000000)
		(0.01027933 -0.15637709 0.10000000)
		(0.02865922 -0.16283253 0.10000000)
		(0.04703911 -0.17028111 0.10000000)
		(0.06541899 -0.17872283 0.10000000)
		(0.08379888 -0.18815770 0.10000000)
		(0.10055866 -0.19661022 0.10000000)
		(0.11731844 -0.20451107 0.10000000)
		(0.13407821 -0.21183808 0.10000000)
		(0.15083799 -0.21857070 0.10000000)
		(0.16759777 -0.22469002 0.10000000)
		(0.18435754 -0.23017889 0.10000000)
		(0.20111732 -0.23502190 0.10000000)
		(0.21787709 -0.23920546 0.10000000)
		(0.23463687 -0.24271784 0.10000000)
		(0.25139665 -0.24554917 0.10000000)
		(0.26815642 -0.24769152 0.10000000)
		(0.28491620 -0.24913886 0.10000000)
		(0.30167598 -0.24988715 0.10000000)
		(0.31843575 -0.24993428 0.10000000)
		(0.33519553 -0.24928012 0.10000000)
		(0.35195531 -0.24792650 0.10000000)
		(0.36871508 -0.24587723 0.10000000)
		(0.38547486 -0.24313805 0.10000000)
		(0.40223464 -0.23971664 0.10000000)
		(0.41899441 -0.23562262 0.10000000)
		(0.43575419 -0.23086746 0.10000000)
		(0.45251397 -0.22546451 0.10000000)
		(0.46927374 -0.21942893 0.10000000)
		(0.48603352 -0.21277765 0.10000000)
		(0.50279330 -0.20552934 0.10000000)
		(0.51955307 -0.19770434 0.10000000)
		(0.53631285 -0.18932459 0.10000000)
		(0.55307263 -0.18041362 0.10000000)
		(0.56983240 -0.17099643 0.10000000)
		(0.58659218 -0.16109944 0.10000000)
		(0.60335196 -0.15075042 0.10000000)
		(0.62011173 -0.13997840 0.10000000)
		(0.63687151 -0.12881363 0.10000000)
		(0.65363128 -0.11728741 0.10000000)
		(0.67039106 -0.10543210 0.10000000)
		(0.68715084 -0.09328095 0.10000000)
		(0.70391061 -0.08086807 0.10000000)
		(0.72067039 -0.06822828 0.10000000)
		(0.73743017 -0.05539704 0.10000000)
		(0.75418994 -0.04241037 0.10000000)
		(0.77094972 -0.02930470 0.10000000)
		(0.78770950 -0.01611681 0.10000000)
		(0.80446927 -0.00288369 0.10000000)
		(0.82122905 0.01035752 0.10000000)
		(0.83798883 0.02356967 0.10000000)
		(0.85474860 0.03671568 0.10000000)
		(0.87150838 0.04975868 0.10000000)
		(0.88826816 0.06266205 0.10000000)
		(0.90502793 0.07538960 0.10000000)
		(0.92178771 0.08790562 0.10000000)
		(0.93854749 0.10017498 0.10000000)
		(0.95530726 0.11216326 0.10000000)
		(0.97206704 0.12383682 0.10000000)
		(0.98882682 0.13516291 0.10000000)
		(1.00558659 0.14610974 0.10000000)
		(1.02234637 0.15664661 0.10000000)
		(1.03910615 0.16674393 0.10000000)
		(1.05586592 0.17637340 0.10000000)
		(1.07262570 0.18550797 0.10000000)
		(1.08938547 0.19412203 0.10000000)
		(1.10614525 0.20219140 0.10000000)
		(1.12290503 0.20969344 0.10000000)
		(1.13966480 0.21660710 0.10000000)
		(1.15642458 0.22291299 0.10000000)
		(1.17318436 0.22859340 0.10000000)
		(1.18994413 0.23363240 0.10000000)
		(1.20670391 0.23801585 0.10000000)
		(1.22346369 0.24173146 0.10000000)
		(1.24022346 0.24476879 0.10000000)
		(1.25698324 0.24711932 0.10000000)
		(1.27374302 0.24877646 0.10000000)
		(1.29050279 0.24973555 0.10000000)
		(1.30726257 0.24999391 0.10000000)
		(1.32402235 0.24955082 0.10000000)
		(1.34078212 0.24840751 0.10000000)
		(1.35754190 0.24656719 0.10000000)
		(1.37430168 0.24403503 0.10000000)
		(1.39106145 0.24081813 0.10000000)
		(1.40782123 0.23692552 0.10000000)
		(1.42458101 0.23236812 0.10000000)
		(1.44134078 0.22715872 0.10000000)
		(1.45810056 0.22131193 0.10000000)
		(1.47486034 0.21484416 0.10000000)
		(1.49162011 0.20777356 0.10000000)
		(1.50837989 0.20011997 0.10000000)
		(1.52513966 0.19190486 0.10000000)
		(1.54189944 0.18315129 0.10000000)
		(1.55865922 0.17388381 0.10000000)
		(1.57541899 0.16412843 0.10000000)
		(1.59217877 0.15391252 0.10000000)
		(1.60893855 0.14326475 0.10000000)
		(1.62569832 0.13221499 0.10000000)
		(1.64245810 0.12079425 0.10000000)
		(1.65921788 0.10903458 0.10000000)
		(1.67597765 0.09696896 0.10000000)
		(1.69273743 0.08463126 0.10000000)
		(1.70949721 0.07205609 0.10000000)
		(1.72625698 0.05927873 0.10000000)
		(1.74301676 0.04633505 0.10000000)
		(1.75977654 0.03326136 0.10000000)
		(1.77653631 0.02009433 0.10000000)
		(1.79329609 0.00687093 0.10000000)
		(1.81005587 -0.00637175 0.10000000)
		(1.82681564 -0.01959656 0.10000000)
		(1.84357542 -0.03276638 0.10000000)
		(1.86033520 -0.04584426 0.10000000)
		(1.87709497 -0.05879351 0.10000000)
		(1.89385475 -0.07157778 0.10000000)
		(1.91061453 -0.08416122 0.10000000)
		(1.92737430 -0.09650851 0.10000000)
		(1.94413408 -0.10858500 0.10000000)
		(1.96089385 -0.12035682 0.10000000)
		(1.97765363 -0.13179093 0.10000000)
		(1.99441341 -0.14285524 0.10000000)
		(2.01117318 -0.15351872 0.10000000)
		(2.02793296 -0.16375144 0.10000000)
		(2.04469274 -0.17352468 0.10000000)
		(2.06145251 -0.18281104 0.10000000)
		(2.07821229 -0.19158444 0.10000000)
		(2.09497207 -0.19982028 0.10000000)
		(2.11173184 -0.20749544 0.10000000)
		(2.12849162 -0.21458839 0.10000000)
		(2.14525140 -0.22107923 0.10000000)
		(2.16201117 -0.22694974 0.10000000)
		(2.17877095 -0.23218345 0.10000000)
		(2.19553073 -0.23676568 0.10000000)
		(2.21229050 -0.24068356 0.10000000)
		(2.22905028 -0.24392611 0.10000000)
		(2.24581006 -0.24648423 0.10000000)
		(2.26256983 -0.24835074 0.10000000)
		(2.27932961 -0.24952040 0.10000000)
		(2.29608939 -0.24998993 0.10000000)
		(2.31284916 -0.24975802 0.10000000)
		(2.32960894 -0.24882530 0.10000000)
		(2.34636872 -0.24719441 0.10000000)
		(2.36312849 -0.24486991 0.10000000)
		(2.37988827 -0.24185834 0.10000000)
		(2.39664804 -0.23816813 0.10000000)
		(2.41340782 -0.23380965 0.10000000)
		(2.43016760 -0.22879512 0.10000000)
		(2.44692737 -0.22313861 0.10000000)
		(2.46368715 -0.21685600 0.10000000)
		(2.48044693 -0.20996491 0.10000000)
		(2.49720670 -0.20248468 0.10000000)
		(2.51396648 -0.19443630 0.10000000)
		(2.53072626 -0.18584235 0.10000000)
		(2.54748603 -0.17672694 0.10000000)
		(2.56424581 -0.16711566 0.10000000)
		(2.58100559 -0.15703546 0.10000000)
		(2.59776536 -0.14651464 0.10000000)
		(2.61452514 -0.13558272 0.10000000)
		(2.63128492 -0.12427036 0.10000000)
		(2.64804469 -0.11260931 0.10000000)
		(2.66480447 -0.10063229 0.10000000)
		(2.68156425 -0.08837291 0.10000000)
		(2.69832402 -0.07586556 0.10000000)
		(2.71508380 -0.06314534 0.10000000)
		(2.73184358 -0.05024794 0.10000000)
		(2.74860335 -0.03720955 0.10000000)
		(2.76536313 -0.02406675 0.10000000)
		(2.78212291 -0.01085642 0.10000000)
		(2.79888268 0.00238436 0.10000000)
		(2.81564246 0.01561846 0.10000000)
		(2.83240223 0.02880874 0.10000000)
		(2.84916201 0.04191818 0.10000000)
		(2.86592179 0.05491000 0.10000000)
		(2.88268156 0.06774775 0.10000000)
		(2.89944134 0.08039540 0.10000000)
		(2.91620112 0.09281748 0.10000000)
		(2.93296089 0.10497911 0.10000000)
		(2.95166480 0.11359992 0.10000000)
		(2.97036872 0.12131327 0.10000000)
		(2.98907263 0.12811916 0.10000000)
		(3.00777654 0.13401761 0.10000000)
		(3.02648045 0.13900860 0.10000000)
		(3.04518436 0.14309214 0.10000000)
		(3.06388827 0.14626823 0.10000000)
		(3.08259218 0.14853686 0.10000000)
		(3.10129609 0.14989804 0.10000000)
		(3.12000000 0.15035176 0.10000000)
		(3.14000000 0.15035176 0.10000000)
		(3.16000000 0.15035176 0.10000000)
		(3.18000000 0.15035176 0.10000000)
		(3.20000000 0.15035176 0.10000000)
		(3.22000000 0.15035176 0.10000000)
		(3.24000000 0.15035176 0.10000000)
		(3.26000000 0.15035176 0.10000000)
		(3.28000000 0.15035176 0.10000000)
		(3.30000000 0.15035176 0.10000000)
		(3.32000000 0.15035176 0.10000000)
		(3.34000000 0.15035176 0.10000000)
		(3.36000000 0.15035176 0.10000000)
		(3.38000000 0.15035176 0.10000000)
		(3.40000000 0.15035176 0.10000000)
		(3.42000000 0.15035176 0.10000000)
		(3.44000000 0.15035176 0.10000000)
		(3.46000000 0.15035176 0.10000000)
		(3.48000000 0.15035176 0.10000000)
		(3.50000000 0.15035176 0.10000000)
		(3.52000000 0.15035176 0.10000000)
		(3.54000000 0.15035176 0.10000000)
		(3.56000000 0.15035176 0.10000000)
		(3.58000000 0.15035176 0.10000000)
		(3.60000000 0.15035176 0.10000000)
		(3.62000000 0.15035176 0.10000000)
		(3.64000000 0.15035176 0.10000000)
		(3.66000000 0.15035176 0.10000000)
		(3.68000000 0.15035176 0.10000000)
		(3.70000000 0.15035176 0.10000000)
		(3.72000000 0.15035176 0.10000000)
		(3.74000000 0.15035176 0.10000000)
		(3.76000000 0.15035176 0.10000000)
		(3.78000000 0.15035176 0.10000000)
		(3.80000000 0.15035176 0.10000000)
		(3.82000000 0.15035176 0.10000000)
		(3.84000000 0.15035176 0.10000000)
		(3.86000000 0.15035176 0.10000000)
		(3.88000000 0.15035176 0.10000000)
		(3.90000000 0.15035176 0.10000000)
		(3.92000000 0.15035176 0.10000000)
		(3.94000000 0.15035176 0.10000000)
		(3.96000000 0.15035176 0.10000000)
		(3.98000000 0.15035176 0.10000000)
		(4.00000000 0.15035176 0.10000000)
	)
	polyLine 3 2
	(
		(-1.00000000 0.36149950 0.00000000)
		(-0.98000000 0.36087834 0.00000000)
		(-0.96000000 0.36025718 0.00000000)
		(-0.94000000 0.35963602 0.00000000)
		(-0.92000000 0.35901486 0.00000000)
		(-0.90000000 0.35839370 0.00000000)
		(-0.88000000 0.35777254 0.00000000)
		(-0.86000000 0.35715138 0.00000000)
		(-0.84000000 0.35653022 0.00000000)
		(-0.82000000 0.35590906 0.00000000)
		(-0.80000000 0.35528790 0.00000000)
		(-0.78000000 0.35466674 0.00000000)
		(-0.76000000 0.35404557 0.00000000)
		(-0.74000000 0.35342441 0.00000000)
		(-0.72000000 0.35280325 0.00000000)
		(-0.70000000 0.35218209 0.00000000)
		(-0.68000000 0.35156093 0.00000000)
		(-0.66000000 0.35093977 0.00000000)
		(-0.64000000 0.35031861 0.00000000)
		(-0.62000000 0.34969745 0.00000000)
		(-0.60000000 0.34907629 0.00000000)
		(-0.58000000 0.34845513 0.00000000)
		(-0.56000000 0.34783397 0.00000000)
		(-0.54000000 0.34721281 0.00000000)
		(-0.52000000 0.34659165 0.00000000)
		(-0.50000000 0.34597049 0.00000000)
		(-0.48000000 0.34534933 0.00000000)
		(-0.46000000 0.34472816 0.00000000)
		(-0.44000000 0.34410700 0.00000000)
		(-0.42000000 0.34348584 0.00000000)
		(-0.40000000 0.34286468 0.00000000)
		(-0.38000000 0.34224352 0.00000000)
		(-0.36000000 0.34162236 0.00000000)
		(-0.34000000 0.34100120 0.00000000)
		(-0.32000000 0.34038004 0.00000000)
		(-0.30000000 0.33975888 0.00000000)
		(-0.28000000 0.33913772 0.00000000)
		(-0.26000000 0.33851656 0.00000000)
		(-0.24000000 0.33789540 0.00000000)
		(-0.22000000 0.33727424 0.00000000)
		(-0.20000000 0.33665308 0.00000000)
		(-0.18000000 0.33603192 0.00000000)
		(-0.16000000 0.33541075 0.00000000)
		(-0.14000000 0.33478959 0.00000000)
		(-0.12000000 0.33416843 0.00000000)
		(-0.10000000 0.33354727 0.00000000)
		(-0.08162011 0.33351870 0.00000000)
		(-0.06324022 0.33209527 0.00000000)
		(-0.04486034 0.32927697 0.00000000)
		(-0.02648045 0.32506381 0.00000000)
		(-0.00810056 0.31945579 0.00000000)
		(0.01027933 0.31245291 0.00000000)
		(0.02865922 0.30405517 0.00000000)
		(0.04703911 0.29426256 0.00000000)
		(0.06541899 0.28307509 0.00000000)
		(0.08379888 0.27049276 0.00000000)
		(0.10055866 0.26018272 0.00000000)
		(0.11731844 0.25054558 0.00000000)
		(0.13407821 0.24160838 0.00000000)
		(0.15083799 0.23339620 0.00000000)
		(0.16759777 0.22593209 0.00000000)
		(0.18435754 0.21923699 0.00000000)
		(0.20111732 0.21332968 0.00000000)
		(0.21787709 0.20822674 0.00000000)
		(0.23463687 0.20394248 0.00000000)
		(0.25139665 0.20048894 0.00000000)
		(0.26815642 0.19787579 0.00000000)
		(0.28491620 0.19611037 0.00000000)
		(0.30167598 0.19519764 0.00000000)
		(0.31843575 0.19514016 0.00000000)
		(0.33519553 0.19593808 0.00000000)
		(0.35195531 0.19758916 0.00000000)
		(0.36871508 0.20008879 0.00000000)
		(0.38547486 0.20342993 0.00000000)
		(0.40223464 0.20760322 0.00000000)
		(0.41899441 0.21259695 0.00000000)
		(0.43575419 0.21839710 0.00000000)
		(0.45251397 0.22498740 0.00000000)
		(0.46927374 0.23234936 0.00000000)
		(0.48603352 0.24046232 0.00000000)
		(0.50279330 0.24930352 0.00000000)
		(0.51955307 0.25884815 0.00000000)
		(0.53631285 0.26906943 0.00000000)
		(0.55307263 0.27993868 0.00000000)
		(0.56983240 0.29142539 0.00000000)
		(0.58659218 0.30349735 0.00000000)
		(0.60335196 0.31612067 0.00000000)
		(0.62011173 0.32925994 0.00000000)
		(0.63687151 0.34287829 0.00000000)
		(0.65363128 0.35693751 0.00000000)
		(0.67039106 0.37139815 0.00000000)
		(0.68715084 0.38621963 0.00000000)
		(0.70391061 0.40136036 0.00000000)
		(0.72067039 0.41677788 0.00000000)
		(0.73743017 0.43242890 0.00000000)
		(0.75418994 0.44826952 0.00000000)
		(0.77094972 0.46425530 0.00000000)
		(0.78770950 0.48034136 0.00000000)
		(0.80446927 0.49648259 0.00000000)
		(0.82122905 0.51263369 0.00000000)
		(0.83798883 0.52874934 0.00000000)
		(0.85474860 0.54478432 0.00000000)
		(0.87150838 0.56069365 0.00000000)
		(0.88826816 0.57643267 0.00000000)
		(0.90502793 0.59195722 0.00000000)
		(0.92178771 0.60722376 0.00000000)
		(0.93854749 0.62218944 0.00000000)
		(0.95530726 0.63681226 0.00000000)
		(0.97206704 0.65105120 0.00000000)
		(0.98882682 0.66486631 0.00000000)
		(1.00558659 0.67821882 0.00000000)
		(1.02234637 0.69107127 0.00000000)
		(1.03910615 0.70338758 0.00000000)
		(1.05586592 0.71513322 0.00000000)
		(1.07262570 0.72627521 0.00000000)
		(1.08938547 0.73678229 0.00000000)
		(1.10614525 0.74662499 0.00000000)
		(1.12290503 0.75577568 0.00000000)
		(1.13966480 0.76420869 0.00000000)
		(1.15642458 0.77190035 0.00000000)
		(1.17318436 0.77882909 0.00000000)
		(1.18994413 0.78497546 0.00000000)
		(1.20670391 0.79032222 0.00000000)
		(1.22346369 0.79485437 0.00000000)
		(1.24022346 0.79855918 0.00000000)
		(1.25698324 0.80142626 0.00000000)
		(1.27374302 0.80344757 0.00000000)
		(1.29050279 0.80461744 0.00000000)
		(1.30726257 0.80493258 0.00000000)
		(1.32402235 0.80439211 0.00000000)
		(1.34078212 0.80299755 0.00000000)
		(1.35754190 0.80075280 0.00000000)
		(1.37430168 0.79766417 0.00000000)
		(1.39106145 0.79374033 0.00000000)
		(1.40782123 0.78899228 0.00000000)
		(1.42458101 0.78343334 0.00000000)
		(1.44134078 0.77707912 0.00000000)
		(1.45810056 0.76994744 0.00000000)
		(1.47486034 0.76205832 0.00000000)
		(1.49162011 0.75343388 0.00000000)
		(1.50837989 0.74409834 0.00000000)
		(1.52513966 0.73407788 0.00000000)
		(1.54189944 0.72340062 0.00000000)
		(1.55865922 0.71209652 0.00000000)
		(1.57541899 0.70019730 0.00000000)
		(1.59217877 0.68773634 0.00000000)
		(1.60893855 0.67474862 0.00000000)
		(1.62569832 0.66127056 0.00000000)
		(1.64245810 0.64734000 0.00000000)
		(1.65921788 0.63299602 0.00000000)
		(1.67597765 0.61827886 0.00000000)
		(1.69273743 0.60322982 0.00000000)
		(1.70949721 0.58789113 0.00000000)
		(1.72625698 0.57230583 0.00000000)
		(1.74301676 0.55651764 0.00000000)
		(1.75977654 0.54057087 0.00000000)
		(1.77653631 0.52451027 0.00000000)
		(1.79329609 0.50838089 0.00000000)
		(1.81005587 0.49222799 0.00000000)
		(1.82681564 0.47609690 0.00000000)
		(1.84357542 0.46003288 0.00000000)
		(1.86033520 0.44408101 0.00000000)
		(1.87709497 0.42828603 0.00000000)
		(1.89385475 0.41269228 0.00000000)
		(1.91061453 0.39734351 0.00000000)
		(1.92737430 0.38228278 0.00000000)
		(1.94413408 0.36755236 0.00000000)
		(1.96089385 0.35319356 0.00000000)
		(1.97765363 0.33924670 0.00000000)
		(1.99441341 0.32575089 0.00000000)
		(2.01117318 0.31274401 0.00000000)
		(2.02793296 0.30026255 0.00000000)
		(2.04469274 0.28834153 0.00000000)
		(2.06145251 0.27701440 0.00000000)
		(2.07821229 0.26631296 0.00000000)
		(2.09497207 0.25626721 0.00000000)
		(2.11173184 0.24690535 0.00000000)
		(2.12849162 0.23825366 0.00000000)
		(2.14525140 0.23033639 0.00000000)
		(2.16201117 0.22317578 0.00000000)
		(2.17877095 0.21679191 0.00000000)
		(2.19553073 0.21120269 0.00000000)
		(2.21229050 0.20642381 0.00000000)
		(2.22905028 0.20246868 0.00000000)
		(2.24581006 0.19934839 0.00000000)
		(2.26256983 0.19707170 0.00000000)
		(2.27932961 0.19564499 0.00000000)
		(2.29608939 0.19507228 0.00000000)
		(2.31284916 0.19535516 0.00000000)
		(2.32960894 0.19649284 0.00000000)
		(2.34636872 0.19848214 0.00000000)
		(2.36312849 0.20131747 0.00000000)
		(2.37988827 0.20499087 0.00000000)
		(2.39664804 0.20949204 0.00000000)
		(2.41340782 0.21480834 0.00000000)
		(2.43016760 0.22092486 0.00000000)
		(2.44692737 0.22782444 0.00000000)
		(2.46368715 0.23548772 0.00000000)
		(2.48044693 0.24389320 0.00000000)
		(2.49720670 0.25301728 0.00000000)