/*--------------------------------*- C++ -*----------------------------------*\\
/*--------------------------------*- C++ -*----------------------------------*\\
| =========                 |                                                 |
| \\\\      /  F ield         | OpenFOAM: The Open Source CFD Toolbox           |
|  \\\\    /   O peration     | Version:  v2012                                 |
|   \\\\  /    A nd           | Website:  www.openfoam.com                      |
|    \\\\/     M anipulation  |                                                 |
\\*---------------------------------------------------------------------------*/
FoamFile
{
    version     2.0;
    format      ascii;
    class       dictionary;
    object      blockMeshDict;
}
// * * * * * * * * * * * * * * * * * * * * * * * * * * * * * * * * * * * * * //

scale   0.01;

xmin -1;
xmax 5;
ymin 0;
ymax 0.5;
zmin 0;
zmax 0.1;

vertices
(
    (-1.00000000 -0.24999494 0.00000000)
    (4.00000000 0.02560029 0.00000000)
    (4.00000000 0.52560029 0.00000000)
    (-1.00000000 0.25000506 0.00000000)
    (-1.00000000 -0.24999494 0.10000000)
    (4.00000000 0.02560029 0.10000000)
    (4.00000000 0.52560029 0.10000000)
    (-1.00000000 0.25000506 0.10000000)
);

blocks
(
    hex (0 1 2 3 4 5 6 7) (200 20 1) simpleGrading (1 1 1)
);

edges
(
	polyLine 0 1
	(
		(-1.00000000 -0.24999494 0.00000000)
		(-0.98000000 -0.24999494 0.00000000)
		(-0.96000000 -0.24999494 0.00000000)
		(-0.94000000 -0.24999494 0.00000000)
		(-0.92000000 -0.24999494 0.00000000)
		(-0.90000000 -0.24999494 0.00000000)
		(-0.88000000 -0.24999494 0.00000000)
		(-0.86000000 -0.24999494 0.00000000)
		(-0.84000000 -0.24999494 0.00000000)
		(-0.82000000 -0.24999494 0.00000000)
		(-0.80000000 -0.24999494 0.00000000)
		(-0.78000000 -0.24999494 0.00000000)
		(-0.76000000 -0.24999494 0.00000000)
		(-0.74000000 -0.24999494 0.00000000)
		(-0.72000000 -0.24999494 0.00000000)
		(-0.70000000 -0.24999494 0.00000000)
		(-0.68000000 -0.24999494 0.00000000)
		(-0.66000000 -0.24999494 0.00000000)
		(-0.64000000 -0.24999494 0.00000000)
		(-0.62000000 -0.24999494 0.00000000)
		(-0.60000000 -0.24999494 0.00000000)
		(-0.58000000 -0.24999494 0.00000000)
		(-0.56000000 -0.24999494 0.00000000)
		(-0.54000000 -0.24999494 0.00000000)
		(-0.52000000 -0.24999494 0.00000000)
		(-0.50000000 -0.24999494 0.00000000)
		(-0.48000000 -0.24999494 0.00000000)
		(-0.46000000 -0.24999494 0.00000000)
		(-0.44000000 -0.24999494 0.00000000)
		(-0.42000000 -0.24999494 0.00000000)
		(-0.40000000 -0.24999494 0.00000000)
		(-0.38000000 -0.24999494 0.00000000)
		(-0.36000000 -0.24999494 0.00000000)
		(-0.34000000 -0.24999494 0.00000000)
		(-0.32000000 -0.24999494 0.00000000)
		(-0.30000000 -0.24999494 0.00000000)
		(-0.28000000 -0.24999494 0.00000000)
		(-0.26000000 -0.24999494 0.00000000)
		(-0.24000000 -0.24999494 0.00000000)
		(-0.22000000 -0.24999494 0.00000000)
		(-0.20000000 -0.24999494 0.00000000)
		(-0.18000000 -0.24999494 0.00000000)
		(-0.16000000 -0.24999494 0.00000000)
		(-0.14000000 -0.24999494 0.00000000)
		(-0.12000000 -0.24999494 0.00000000)
		(-0.10000000 -0.24999494 0.00000000)
		(-0.08162011 -0.24987548 0.00000000)
		(-0.06324022 -0.24951709 0.00000000)
		(-0.04486034 -0.24891977 0.00000000)
		(-0.02648045 -0.24808352 0.00000000)
		(-0.00810056 -0.24700835 0.00000000)
		(0.01027933 -0.24569425 0.00000000)
		(0.02865922 -0.24414122 0.00000000)
		(0.04703911 -0.24234926 0.00000000)
		(0.06541899 -0.24031838 0.00000000)
		(0.08379888 -0.23804857 0.00000000)
		(0.10055866 -0.23296634 0.00000000)
		(0.11731844 -0.22702264 0.00000000)
		(0.13407821 -0.22023944 0.00000000)
		(0.15083799 -0.21264184 0.00000000)
		(0.16759777 -0.20425793 0.00000000)
		(0.18435754 -0.19511870 0.00000000)
		(0.20111732 -0.18525796 0.00000000)
		(0.21787709 -0.17471217 0.00000000)
		(0.23463687 -0.16352031 0.00000000)
		(0.25139665 -0.15172379 0.00000000)
		(0.26815642 -0.13936622 0.00000000)
		(0.28491620 -0.12649330 0.00000000)
		(0.30167598 -0.11315262 0.00000000)
		(0.31843575 -0.09939353 0.00000000)
		(0.33519553 -0.08526689 0.00000000)
		(0.35195531 -0.07082495 0.00000000)
		(0.36871508 -0.05612112 0.00000000)
		(0.38547486 -0.04120975 0.00000000)
		(0.40223464 -0.02614600 0.00000000)
		(0.41899441 -0.01098557 0.00000000)
		(0.43575419 0.00421549 0.00000000)
		(0.45251397 0.01940095 0.00000000)
		(0.46927374 0.03451468 0.00000000)
		(0.48603352 0.04950078 0.00000000)
		(0.50279330 0.06430383 0.00000000)
		(0.51955307 0.07886910 0.00000000)
		(0.53631285 0.09314272 0.00000000)
		(0.55307263 0.10707191 0.00000000)
		(0.56983240 0.12060518 0.00000000)
		(0.58659218 0.13369246 0.00000000)
		(0.60335196 0.14628537 0.00000000)
		(0.62011173 0.15833735 0.00000000)
		(0.63687151 0.16980381 0.00000000)
		(0.65363128 0.18064238 0.00000000)
		(0.67039106 0.19081295 0.00000000)
		(0.68715084 0.20027794 0.00000000)
		(0.70391061 0.20900232 0.00000000)
		(0.72067039 0.21695386 0.00000000)
		(0.73743017 0.22410313 0.00000000)
		(0.75418994 0.23042371 0.00000000)
		(0.77094972 0.23589222 0.00000000)
		(0.78770950 0.24048844 0.00000000)
		(0.80446927 0.24419537 0.00000000)
		(0.82122905 0.24699931 0.00000000)
		(0.83798883 0.24888989 0.00000000)
		(0.85474860 0.24986012 0.00000000)
		(0.87150838 0.24990640 0.00000000)
		(0.88826816 0.24902857 0.00000000)
		(0.90502793 0.24722988 0.00000000)
		(0.92178771 0.24451697 0.00000000)
		(0.93854749 0.24089988 0.00000000)
		(0.95530726 0.23639198 0.00000000)
		(0.97206704 0.23100995 0.00000000)
		(0.98882682 0.22477367 0.00000000)
		(1.00558659 0.21770623 0.00000000)
		(1.02234637 0.20983374 0.00000000)
		(1.03910615 0.20118532 0.00000000)
		(1.05586592 0.19179295 0.00000000)
		(1.07262570 0.18169136 0.00000000)
		(1.08938547 0.17091791 0.00000000)
		(1.10614525 0.15951244 0.00000000)
		(1.12290503 0.14751711 0.00000000)
		(1.13966480 0.13497629 0.00000000)
		(1.15642458 0.12193635 0.00000000)
		(1.17318436 0.10844551 0.00000000)
		(1.18994413 0.09455366 0.00000000)
		(1.20670391 0.08031216 0.00000000)
		(1.22346369 0.06577368 0.00000000)
		(1.24022346 0.05099198 0.00000000)
		(1.25698324 0.03602173 0.00000000)
		(1.27374302 0.02091827 0.00000000)
		(1.29050279 0.00573745 0.00000000)
		(1.30726257 -0.00946457 0.00000000)
		(1.32402235 -0.02463160 0.00000000)
		(1.34078212 -0.03970755 0.00000000)
		(1.35754190 -0.05463667 0.00000000)
		(1.37430168 -0.06936374 0.00000000)
		(1.39106145 -0.08383433 0.00000000)
		(1.40782123 -0.09799490 0.00000000)
		(1.42458101 -0.11179311 0.00000000)
		(1.44134078 -0.12517793 0.00000000)
		(1.45810056 -0.13809985 0.00000000)
		(1.47486034 -0.15051111 0.00000000)
		(1.49162011 -0.16236581 0.00000000)
		(1.50837989 -0.17362010 0.00000000)
		(1.52513966 -0.18423237 0.00000000)
		(1.54189944 -0.19416339 0.00000000)
		(1.55865922 -0.20337642 0.00000000)
		(1.57541899 -0.21183739 0.00000000)
		(1.59217877 -0.21951503 0.00000000)
		(1.60893855 -0.22638094 0.00000000)
		(1.62569832 -0.23240973 0.00000000)
		(1.64245810 -0.23757911 0.00000000)
		(1.65921788 -0.24186996 0.00000000)
		(1.67597765 -0.24526642 0.00000000)
		(1.69273743 -0.24775592 0.00000000)
		(1.70949721 -0.24932926 0.00000000)
		(1.72625698 -0.24998063 0.00000000)
		(1.74301676 -0.24970760 0.00000000)
		(1.75977654 -0.24851120 0.00000000)
		(1.77653631 -0.24639585 0.00000000)
		(1.79329609 -0.24336937 0.00000000)
		(1.81005587 -0.23944295 0.00000000)
		(1.82681564 -0.23463111 0.00000000)
		(1.84357542 -0.22895164 0.00000000)
		(1.86033520 -0.22242555 0.00000000)
		(1.87709497 -0.21507696 0.00000000)
		(1.89385475 -0.20693306 0.00000000)
		(1.91061453 -0.19802395 0.00000000)
		(1.92737430 -0.18838258 0.00000000)
		(1.94413408 -0.17804461 0.00000000)
		(1.96089385 -0.16704826 0.00000000)
		(1.97765363 -0.15543419 0.00000000)
		(1.99441341 -0.14324535 0.00000000)
		(2.01117318 -0.13052681 0.00000000)
		(2.02793296 -0.11732561 0.00000000)
		(2.04469274 -0.10369056 0.00000000)
		(2.06145251 -0.08967207 0.00000000)
		(2.07821229 -0.07532200 0.00000000)
		(2.09497207 -0.06069339 0.00000000)
		(2.11173184 -0.04584035 0.00000000)
		(2.12849162 -0.03081781 0.00000000)
		(2.14525140 -0.01568130 0.00000000)
		(2.16201117 -0.00048681 0.00000000)
		(2.17877095 0.01470949 0.00000000)
		(2.19553073 0.02985139 0.00000000)
		(2.21229050 0.04488290 0.00000000)
		(2.22905028 0.05974845 0.00000000)
		(2.24581006 0.07439306 0.00000000)
		(2.26256983 0.08876257 0.00000000)
		(2.27932961 0.10280385 0.00000000)
		(2.29608939 0.11646498 0.00000000)
		(2.31284916 0.12969545 0.00000000)
		(2.32960894 0.14244632 0.00000000)
		(2.34636872 0.15467045 0.00000000)
		(2.36312849 0.16632264 0.00000000)
		(2.37988827 0.17735979 0.00000000)
		(2.39664804 0.18774109 0.00000000)
		(2.41340782 0.19742816 0.00000000)
		(2.43016760 0.20638517 0.00000000)
		(2.44692737 0.21457901 0.00000000)
		(2.46368715 0.22197937 0.00000000)
		(2.48044693 0.22855888 0.00000000)
		(2.49720670 0.23429323 0.00000000)
		(2.51396648 0.23916119 0.00000000)
		(2.53072626 0.24314478 0.00000000)
		(2.54748603 0.24622926 0.00000000)
		(2.56424581 0.24840322 0.00000000)
		(2.58100559 0.24965864 0.00000000)
		(2.59776536 0.24999085 0.00000000)
		(2.61452514 0.24939864 0.00000000)
		(2.63128492 0.24788420 0.00000000)
		(2.64804469 0.24545312 0.00000000)
		(2.66480447 0.24211440 0.00000000)
		(2.68156425 0.23788038 0.00000000)
		(2.69832402 0.23276672 0.00000000)
		(2.71508380 0.22679232 0.00000000)
		(2.73184358 0.21997929 0.00000000)
		(2.74860335 0.21235281 0.00000000)
		(2.76536313 0.20394108 0.00000000)
		(2.78212291 0.19477522 0.00000000)
		(2.79888268 0.18488911 0.00000000)
		(2.81564246 0.17431931 0.00000000)
		(2.83240223 0.16310490 0.00000000)
		(2.84916201 0.15128736 0.00000000)
		(2.86592179 0.13891039 0.00000000)
		(2.88268156 0.12601975 0.00000000)
		(2.89944134 0.11266311 0.00000000)
		(2.91620112 0.09888985 0.00000000)
		(2.93296089 0.08475093 0.00000000)
		(2.95166480 0.07351231 0.00000000)
		(2.97036872 0.06345670 0.00000000)
		(2.98907263 0.05458410 0.00000000)
		(3.00777654 0.04689452 0.00000000)
		(3.02648045 0.04038795 0.00000000)
		(3.04518436 0.03506439 0.00000000)
		(3.06388827 0.03092385 0.00000000)
		(3.08259218 0.02796632 0.00000000)
		(3.10129609 0.02619180 0.00000000)
		(3.12000000 0.02560029 0.00000000)
		(3.14000000 0.02560029 0.00000000)
		(3.16000000 0.02560029 0.00000000)
		(3.18000000 0.02560029 0.00000000)
		(3.20000000 0.02560029 0.00000000)
		(3.22000000 0.02560029 0.00000000)
		(3.24000000 0.02560029 0.00000000)
		(3.26000000 0.02560029 0.00000000)
		(3.28000000 0.02560029 0.00000000)
		(3.30000000 0.02560029 0.00000000)
		(3.32000000 0.02560029 0.00000000)
		(3.34000000 0.02560029 0.00000000)
		(3.36000000 0.02560029 0.00000000)
		(3.38000000 0.02560029 0.00000000)
		(3.40000000 0.02560029 0.00000000)
		(3.42000000 0.02560029 0.00000000)
		(3.44000000 0.02560029 0.00000000)
		(3.46000000 0.02560029 0.00000000)
		(3.48000000 0.02560029 0.00000000)
		(3.50000000 0.02560029 0.00000000)
		(3.52000000 0.02560029 0.00000000)
		(3.54000000 0.02560029 0.00000000)
		(3.56000000 0.02560029 0.00000000)
		(3.58000000 0.02560029 0.00000000)
		(3.60000000 0.02560029 0.00000000)
		(3.62000000 0.02560029 0.00000000)
		(3.64000000 0.02560029 0.00000000)
		(3.66000000 0.02560029 0.00000000)
		(3.68000000 0.02560029 0.00000000)
		(3.70000000 0.02560029 0.00000000)
		(3.72000000 0.02560029 0.00000000)
		(3.74000000 0.02560029 0.00000000)
		(3.76000000 0.02560029 0.00000000)
		(3.78000000 0.02560029 0.00000000)
		(3.80000000 0.02560029 0.00000000)
		(3.82000000 0.02560029 0.00000000)
		(3.84000000 0.02560029 0.00000000)
		(3.86000000 0.02560029 0.00000000)
		(3.88000000 0.02560029 0.00000000)
		(3.90000000 0.02560029 0.00000000)
		(3.92000000 0.02560029 0.00000000)
		(3.94000000 0.02560029 0.00000000)
		(3.96000000 0.02560029 0.00000000)
		(3.98000000 0.02560029 0.00000000)
		(4.00000000 0.02560029 0.00000000)
	)
	polyLine 4 5
	(
		(-1.00000000 -0.24999494 0.10000000)
		(-0.98000000 -0.24999494 0.10000000)
		(-0.96000000 -0.24999494 0.10000000)
		(-0.94000000 -0.24999494 0.10000000)
		(-0.92000000 -0.24999494 0.10000000)
		(-0.90000000 -0.24999494 0.10000000)
		(-0.88000000 -0.24999494 0.10000000)
		(-0.86000000 -0.24999494 0.10000000)
		(-0.84000000 -0.24999494 0.10000000)
		(-0.82000000 -0.24999494 0.10000000)
		(-0.80000000 -0.24999494 0.10000000)
		(-0.78000000 -0.24999494 0.10000000)
		(-0.76000000 -0.24999494 0.10000000)
		(-0.74000000 -0.24999494 0.10000000)
		(-0.72000000 -0.24999494 0.10000000)
		(-0.70000000 -0.24999494 0.10000000)
		(-0.68000000 -0.24999494 0.10000000)
		(-0.66000000 -0.24999494 0.10000000)
		(-0.64000000 -0.24999494 0.10000000)
		(-0.62000000 -0.24999494 0.10000000)
		(-0.60000000 -0.24999494 0.10000000)
		(-0.58000000 -0.24999494 0.10000000)
		(-0.56000000 -0.24999494 0.10000000)
		(-0.54000000 -0.24999494 0.10000000)
		(-0.52000000 -0.24999494 0.10000000)
		(-0.50000000 -0.24999494 0.10000000)
		(-0.48000000 -0.24999494 0.10000000)
		(-0.46000000 -0.24999494 0.10000000)
		(-0.44000000 -0.24999494 0.10000000)
		(-0.42000000 -0.24999494 0.10000000)
		(-0.40000000 -0.24999494 0.10000000)
		(-0.38000000 -0.24999494 0.10000000)
		(-0.36000000 -0.24999494 0.10000000)
		(-0.34000000 -0.24999494 0.10000000)
		(-0.32000000 -0.24999494 0.10000000)
		(-0.30000000 -0.24999494 0.10000000)
		(-0.28000000 -0.24999494 0.10000000)
		(-0.26000000 -0.24999494 0.10000000)
		(-0.24000000 -0.24999494 0.10000000)
		(-0.22000000 -0.24999494 0.10000000)
		(-0.20000000 -0.24999494 0.10000000)
		(-0.18000000 -0.24999494 0.10000000)
		(-0.16000000 -0.24999494 0.10000000)
		(-0.14000000 -0.24999494 0.10000000)
		(-0.12000000 -0.24999494 0.10000000)
		(-0.10000000 -0.24999494 0.10000000)
		(-0.08162011 -0.24987548 0.10000000)
		(-0.06324022 -0.24951709 0.10000000)
		(-0.04486034 -0.24891977 0.10000000)
		(-0.02648045 -0.24808352 0.10000000)
		(-0.00810056 -0.24700835 0.10000000)
		(0.01027933 -0.24569425 0.10000000)
		(0.02865922 -0.24414122 0.10000000)
		(0.04703911 -0.24234926 0.10000000)
		(0.06541899 -0.24031838 0.10000000)
		(0.08379888 -0.23804857 0.10000000)
		(0.10055866 -0.23296634 0.10000000)
		(0.11731844 -0.22702264 0.10000000)
		(0.13407821 -0.22023944 0.10000000)
		(0.15083799 -0.21264184 0.10000000)
		(0.16759777 -0.20425793 0.10000000)
		(0.18435754 -0.19511870 0.10000000)
		(0.20111732 -0.18525796 0.10000000)
		(0.21787709 -0.17471217 0.10000000)
		(0.23463687 -0.16352031 0.10000000)
		(0.25139665 -0.15172379 0.10000000)
		(0.26815642 -0.13936622 0.10000000)
		(0.28491620 -0.12649330 0.10000000)
		(0.30167598 -0.11315262 0.10000000)
		(0.31843575 -0.09939353 0.10000000)
		(0.33519553 -0.08526689 0.10000000)
		(0.35195531 -0.07082495 0.10000000)
		(0.36871508 -0.05612112 0.10000000)
		(0.38547486 -0.04120975 0.10000000)
		(0.40223464 -0.02614600 0.10000000)
		(0.41899441 -0.01098557 0.10000000)
		(0.43575419 0.00421549 0.10000000)
		(0.45251397 0.01940095 0.10000000)
		(0.46927374 0.03451468 0.10000000)
		(0.48603352 0.04950078 0.10000000)
		(0.50279330 0.06430383 0.10000000)
		(0.51955307 0.07886910 0.10000000)
		(0.53631285 0.09314272 0.10000000)
		(0.55307263 0.10707191 0.10000000)
		(0.56983240 0.12060518 0.10000000)
		(0.58659218 0.13369246 0.10000000)
		(0.60335196 0.14628537 0.10000000)
		(0.62011173 0.15833735 0.10000000)
		(0.63687151 0.16980381 0.10000000)
		(0.65363128 0.18064238 0.10000000)
		(0.67039106 0.19081295 0.10000000)
		(0.68715084 0.20027794 0.10000000)
		(0.70391061 0.20900232 0.10000000)
		(0.72067039 0.21695386 0.10000000)
		(0.73743017 0.22410313 0.10000000)
		(0.75418994 0.23042371 0.10000000)
		(0.77094972 0.23589222 0.10000000)
		(0.78770950 0.24048844 0.10000000)
		(0.80446927 0.24419537 0.10000000)
		(0.82122905 0.24699931 0.10000000)
		(0.83798883 0.24888989 0.10000000)
		(0.85474860 0.24986012 0.10000000)
		(0.87150838 0.24990640 0.10000000)
		(0.88826816 0.24902857 0.10000000)
		(0.90502793 0.24722988 0.10000000)
		(0.92178771 0.24451697 0.10000000)
		(0.93854749 0.24089988 0.10000000)
		(0.95530726 0.23639198 0.10000000)
		(0.97206704 0.23100995 0.10000000)
		(0.98882682 0.22477367 0.10000000)
		(1.00558659 0.21770623 0.10000000)
		(1.02234637 0.20983374 0.10000000)
		(1.03910615 0.20118532 0.10000000)
		(1.05586592 0.19179295 0.10000000)
		(1.07262570 0.18169136 0.10000000)
		(1.08938547 0.17091791 0.10000000)
		(1.10614525 0.15951244 0.10000000)
		(1.12290503 0.14751711 0.10000000)
		(1.13966480 0.13497629 0.10000000)
		(1.15642458 0.12193635 0.10000000)
		(1.17318436 0.10844551 0.10000000)
		(1.18994413 0.09455366 0.10000000)
		(1.20670391 0.08031216 0.10000000)
		(1.22346369 0.06577368 0.10000000)
		(1.24022346 0.05099198 0.10000000)
		(1.25698324 0.03602173 0.10000000)
		(1.27374302 0.02091827 0.10000000)
		(1.29050279 0.00573745 0.10000000)
		(1.30726257 -0.00946457 0.10000000)
		(1.32402235 -0.02463160 0.10000000)
		(1.34078212 -0.03970755 0.10000000)
		(1.35754190 -0.05463667 0.10000000)
		(1.37430168 -0.06936374 0.10000000)
		(1.39106145 -0.08383433 0.10000000)
		(1.40782123 -0.09799490 0.10000000)
		(1.42458101 -0.11179311 0.10000000)
		(1.44134078 -0.12517793 0.10000000)
		(1.45810056 -0.13809985 0.10000000)
		(1.47486034 -0.15051111 0.10000000)
		(1.49162011 -0.16236581 0.10000000)
		(1.50837989 -0.17362010 0.10000000)
		(1.52513966 -0.18423237 0.10000000)
		(1.54189944 -0.19416339 0.10000000)
		(1.55865922 -0.20337642 0.10000000)
		(1.57541899 -0.21183739 0.10000000)
		(1.59217877 -0.21951503 0.10000000)
		(1.60893855 -0.22638094 0.10000000)
		(1.62569832 -0.23240973 0.10000000)
		(1.64245810 -0.23757911 0.10000000)
		(1.65921788 -0.24186996 0.10000000)
		(1.67597765 -0.24526642 0.10000000)
		(1.69273743 -0.24775592 0.10000000)
		(1.70949721 -0.24932926 0.10000000)
		(1.72625698 -0.24998063 0.10000000)
		(1.74301676 -0.24970760 0.10000000)
		(1.75977654 -0.24851120 0.10000000)
		(1.77653631 -0.24639585 0.10000000)
		(1.79329609 -0.24336937 0.10000000)
		(1.81005587 -0.23944295 0.10000000)
		(1.82681564 -0.23463111 0.10000000)
		(1.84357542 -0.22895164 0.10000000)
		(1.86033520 -0.22242555 0.10000000)
		(1.87709497 -0.21507696 0.10000000)
		(1.89385475 -0.20693306 0.10000000)
		(1.91061453 -0.19802395 0.10000000)
		(1.92737430 -0.18838258 0.10000000)
		(1.94413408 -0.17804461 0.10000000)
		(1.96089385 -0.16704826 0.10000000)
		(1.97765363 -0.15543419 0.10000000)
		(1.99441341 -0.14324535 0.10000000)
		(2.01117318 -0.13052681 0.10000000)
		(2.02793296 -0.11732561 0.10000000)
		(2.04469274 -0.10369056 0.10000000)
		(2.06145251 -0.08967207 0.10000000)
		(2.07821229 -0.07532200 0.10000000)
		(2.09497207 -0.06069339 0.10000000)
		(2.11173184 -0.04584035 0.10000000)
		(2.12849162 -0.03081781 0.10000000)
		(2.14525140 -0.01568130 0.10000000)
		(2.16201117 -0.00048681 0.10000000)
		(2.17877095 0.01470949 0.10000000)
		(2.19553073 0.02985139 0.10000000)
		(2.21229050 0.04488290 0.10000000)
		(2.22905028 0.05974845 0.10000000)
		(2.24581006 0.07439306 0.10000000)
		(2.26256983 0.08876257 0.10000000)
		(2.27932961 0.10280385 0.10000000)
		(2.29608939 0.11646498 0.10000000)
		(2.31284916 0.12969545 0.10000000)
		(2.32960894 0.14244632 0.10000000)
		(2.34636872 0.15467045 0.10000000)
		(2.36312849 0.16632264 0.10000000)
		(2.37988827 0.17735979 0.10000000)
		(2.39664804 0.18774109 0.10000000)
		(2.41340782 0.19742816 0.10000000)
		(2.43016760 0.20638517 0.10000000)
		(2.44692737 0.21457901 0.10000000)
		(2.46368715 0.22197937 0.10000000)
		(2.48044693 0.22855888 0.10000000)
		(2.49720670 0.23429323 0.10000000)
		(2.51396648 0.23916119 0.10000000)
		(2.53072626 0.24314478 0.10000000)
		(2.54748603 0.24622926 0.10000000)
		(2.56424581 0.24840322 0.10000000)
		(2.58100559 0.24965864 0.10000000)
		(2.59776536 0.24999085 0.10000000)
		(2.61452514 0.24939864 0.10000000)
		(2.63128492 0.24788420 0.10000000)
		(2.64804469 0.24545312 0.10000000)
		(2.66480447 0.24211440 0.10000000)
		(2.68156425 0.23788038 0.10000000)
		(2.69832402 0.23276672 0.10000000)
		(2.71508380 0.22679232 0.10000000)
		(2.73184358 0.21997929 0.10000000)
		(2.74860335 0.21235281 0.10000000)
		(2.76536313 0.20394108 0.10000000)
		(2.78212291 0.19477522 0.10000000)
		(2.79888268 0.18488911 0.10000000)
		(2.81564246 0.17431931 0.10000000)
		(2.83240223 0.16310490 0.10000000)
		(2.84916201 0.15128736 0.10000000)
		(2.86592179 0.13891039 0.10000000)
		(2.88268156 0.12601975 0.10000000)
		(2.89944134 0.11266311 0.10000000)
		(2.91620112 0.09888985 0.10000000)
		(2.93296089 0.08475093 0.10000000)
		(2.95166480 0.07351231 0.10000000)
		(2.97036872 0.06345670 0.10000000)
		(2.98907263 0.05458410 0.10000000)
		(3.00777654 0.04689452 0.10000000)
		(3.02648045 0.04038795 0.10000000)
		(3.04518436 0.03506439 0.10000000)
		(3.06388827 0.03092385 0.10000000)
		(3.08259218 0.02796632 0.10000000)
		(3.10129609 0.02619180 0.10000000)
		(3.12000000 0.02560029 0.10000000)
		(3.14000000 0.02560029 0.10000000)
		(3.16000000 0.02560029 0.10000000)
		(3.18000000 0.02560029 0.10000000)
		(3.20000000 0.02560029 0.10000000)
		(3.22000000 0.02560029 0.10000000)
		(3.24000000 0.02560029 0.10000000)
		(3.26000000 0.02560029 0.10000000)
		(3.28000000 0.02560029 0.10000000)
		(3.30000000 0.02560029 0.10000000)
		(3.32000000 0.02560029 0.10000000)
		(3.34000000 0.02560029 0.10000000)
		(3.36000000 0.02560029 0.10000000)
		(3.38000000 0.02560029 0.10000000)
		(3.40000000 0.02560029 0.10000000)
		(3.42000000 0.02560029 0.10000000)
		(3.44000000 0.02560029 0.10000000)
		(3.46000000 0.02560029 0.10000000)
		(3.48000000 0.02560029 0.10000000)
		(3.50000000 0.02560029 0.10000000)
		(3.52000000 0.02560029 0.10000000)
		(3.54000000 0.02560029 0.10000000)
		(3.56000000 0.02560029 0.10000000)
		(3.58000000 0.02560029 0.10000000)
		(3.60000000 0.02560029 0.10000000)
		(3.62000000 0.02560029 0.10000000)
		(3.64000000 0.02560029 0.10000000)
		(3.66000000 0.02560029 0.10000000)
		(3.68000000 0.02560029 0.10000000)
		(3.70000000 0.02560029 0.10000000)
		(3.72000000 0.02560029 0.10000000)
		(3.74000000 0.02560029 0.10000000)
		(3.76000000 0.02560029 0.10000000)
		(3.78000000 0.02560029 0.10000000)
		(3.80000000 0.02560029 0.10000000)
		(3.82000000 0.02560029 0.10000000)
		(3.84000000 0.02560029 0.10000000)
		(3.86000000 0.02560029 0.10000000)
		(3.88000000 0.02560029 0.10000000)
		(3.90000000 0.02560029 0.10000000)
		(3.92000000 0.02560029 0.10000000)
		(3.94000000 0.02560029 0.10000000)
		(3.96000000 0.02560029 0.10000000)
		(3.98000000 0.02560029 0.10000000)
		(4.00000000 0.02560029 0.10000000)
	)
	polyLine 3 2
	(
		(-1.00000000 0.25000506 0.00000000)
		(-0.98000000 0.25137076 0.00000000)
		(-0.96000000 0.25273647 0.00000000)
		(-0.94000000 0.25410217 0.00000000)
		(-0.92000000 0.25546787 0.00000000)
		(-0.90000000 0.25683358 0.00000000)
		(-0.88000000 0.25819928 0.00000000)
		(-0.86000000 0.25956499 0.00000000)
		(-0.84000000 0.26093069 0.00000000)
		(-0.82000000 0.26229639 0.00000000)
		(-0.80000000 0.26366210 0.00000000)
		(-0.78000000 0.26502780 0.00000000)
		(-0.76000000 0.26639351 0.00000000)
		(-0.74000000 0.26775921 0.00000000)
		(-0.72000000 0.26912491 0.00000000)
		(-0.70000000 0.27049062 0.00000000)
		(-0.68000000 0.27185632 0.00000000)
		(-0.66000000 0.27322203 0.00000000)
		(-0.64000000 0.27458773 0.00000000)
		(-0.62000000 0.27595344 0.00000000)
		(-0.60000000 0.27731914 0.00000000)
		(-0.58000000 0.27868484 0.00000000)
		(-0.56000000 0.28005055 0.00000000)
		(-0.54000000 0.28141625 0.00000000)
		(-0.52000000 0.28278196 0.00000000)
		(-0.50000000 0.28414766 0.00000000)
		(-0.48000000 0.28551336 0.00000000)
		(-0.46000000 0.28687907 0.00000000)
		(-0.44000000 0.28824477 0.00000000)
		(-0.42000000 0.28961048 0.00000000)
		(-0.40000000 0.29097618 0.00000000)
		(-0.38000000 0.29234188 0.00000000)
		(-0.36000000 0.29370759 0.00000000)
		(-0.34000000 0.29507329 0.00000000)
		(-0.32000000 0.29643900 0.00000000)
		(-0.30000000 0.29780470 0.00000000)
		(-0.28000000 0.29917041 0.00000000)
		(-0.26000000 0.30053611 0.00000000)
		(-0.24000000 0.30190181 0.00000000)
		(-0.22000000 0.30326752 0.00000000)
		(-0.20000000 0.30463322 0.00000000)
		(-0.18000000 0.30599893 0.00000000)
		(-0.16000000 0.30736463 0.00000000)
		(-0.14000000 0.30873033 0.00000000)
		(-0.12000000 0.31009604 0.00000000)
		(-0.10000000 0.31146174 0.00000000)
		(-0.08162011 0.31235760 0.00000000)
		(-0.06324022 0.31337019 0.00000000)
		(-0.04486034 0.31449950 0.00000000)
		(-0.02648045 0.31574554 0.00000000)
		(-0.00810056 0.31710831 0.00000000)
		(0.01027933 0.31858781 0.00000000)
		(0.02865922 0.32018404 0.00000000)
		(0.04703911 0.32189700 0.00000000)
		(0.06541899 0.32372668 0.00000000)
		(0.08379888 0.32567309 0.00000000)
		(0.10055866 0.32939489 0.00000000)
		(0.11731844 0.33374756 0.00000000)
		(0.13407821 0.33871500 0.00000000)
		(0.15083799 0.34427885 0.00000000)
		(0.16759777 0.35041853 0.00000000)
		(0.18435754 0.35711134 0.00000000)
		(0.20111732 0.36433252 0.00000000)
		(0.21787709 0.37205539 0.00000000)
		(0.23463687 0.38025136 0.00000000)
		(0.25139665 0.38889015 0.00000000)
		(0.26815642 0.39793981 0.00000000)
		(0.28491620 0.40736686 0.00000000)
		(0.30167598 0.41713646 0.00000000)
		(0.31843575 0.42721247 0.00000000)
		(0.33519553 0.43755764 0.00000000)
		(0.35195531 0.44813371 0.00000000)
		(0.36871508 0.45890158 0.00000000)
		(0.38547486 0.46982141 0.00000000)
		(0.40223464 0.48085285 0.00000000)
		(0.41899441 0.49195508 0.00000000)
		(0.43575419 0.50308707 0.00000000)
		(0.45251397 0.51420764 0.00000000)
		(0.46927374 0.52527567 0.00000000)
		(0.48603352 0.53625024 0.00000000)
		(0.50279330 0.54709076 0.00000000)
		(0.51955307 0.55775715 0.00000000)
		(0.53631285 0.56820996 0.00000000)
		(0.55307263 0.57841054 0.00000000)
		(0.56983240 0.58832117 0.00000000)
		(0.58659218 0.59790520 0.00000000)
		(0.60335196 0.60712720 0.00000000)
		(0.62011173 0.61595306 0.00000000)
		(0.63687151 0.62435015 0.00000000)
		(0.65363128 0.63228741 0.00000000)
		(0.67039106 0.63973549 0.00000000)
		(0.68715084 0.64666685 0.00000000)
		(0.70391061 0.65305587 0.00000000)
		(0.72067039 0.65887891 0.00000000)
		(0.73743017 0.66411444 0.00000000)
		(0.75418994 0.66874310 0.00000000)
		(0.77094972 0.67274778 0.00000000)
		(0.78770950 0.67611367 0.00000000)
		(0.80446927 0.67882832 0.00000000)
		(0.82122905 0.68088169 0.00000000)
		(0.83798883 0.68226619 0.00000000)
		(0.85474860 0.68297670 0.00000000)
		(0.87150838 0.68301060 0.00000000)
		(0.88826816 0.68236775 0.00000000)
		(0.90502793 0.68105054 0.00000000)
		(0.92178771 0.67906383 0.00000000)
		(0.93854749 0.67641498 0.00000000)
		(0.95530726 0.67311377 0.00000000)
		(0.97206704 0.66917241 0.00000000)
		(0.98882682 0.66460549 0.00000000)
		(1.00558659 0.65942988 0.00000000)
		(1.02234637 0.65366472 0.00000000)
		(1.03910615 0.64733134 0.00000000)
		(1.05586592 0.64045316 0.00000000)
		(1.07262570 0.63305560 0.00000000)
		(1.08938547 0.62516602 0.00000000)
		(1.10614525 0.61681360 0.00000000)
		(1.12290503 0.60802923 0.00000000)
		(1.13966480 0.59884537 0.00000000)
		(1.15642458 0.58929601 0.00000000)
		(1.17318436 0.57941644 0.00000000)
		(1.18994413 0.56924321 0.00000000)
		(1.20670391 0.55881393 0.00000000)
		(1.22346369 0.54816716 0.00000000)
		(1.24022346 0.53734227 0.00000000)
		(1.25698324 0.52637931 0.00000000)
		(1.27374302 0.51531879 0.00000000)
		(1.29050279 0.50420163 0.00000000)
		(1.30726257 0.49306894 0.00000000)
		(1.32402235 0.48196187 0.00000000)
		(1.34078212 0.47092150 0.00000000)
		(1.35754190 0.45998866 0.00000000)
		(1.37430168 0.44920378 0.00000000)
		(1.39106145 0.43860673 0.00000000)
		(1.40782123 0.42823671 0.00000000)
		(1.42458101 0.41813205 0.00000000)
		(1.44134078 0.40833013 0.00000000)
		(1.45810056 0.39886719 0.00000000)
		(1.47486034 0.38977822 0.00000000)
		(1.49162011 0.38109683 0.00000000)
		(1.50837989 0.37285512 0.00000000)
		(1.52513966 0.36508358 0.00000000)
		(1.54189944 0.35781093 0.00000000)
		(1.55865922 0.35106408 0.00000000)
		(1.57541899 0.34486796 0.00000000)
		(1.59217877 0.33924550 0.00000000)
		(1.60893855 0.33421748 0.00000000)
		(1.62569832 0.32980250 0.00000000)
		(1.64245810 0.32601688 0.00000000)
		(1.65921788 0.32287462 0.00000000)
		(1.67597765 0.32038734 0.00000000)
		(1.69273743 0.31856423 0.00000000)
		(1.70949721 0.31741205 0.00000000)
		(1.72625698 0.31693504 0.00000000)
		(1.74301676 0.31713498 0.00000000)
		(1.75977654 0.31801113 0.00000000)
		(1.77653631 0.31956023 0.00000000)
		(1.79329609 0.32177658 0.00000000)
		(1.81005587 0.32465196 0.00000000)
		(1.82681564 0.32817575 0.00000000)
		(1.84357542 0.33233492 0.00000000)
		(1.86033520 0.33711409 0.00000000)
		(1.87709497 0.34249558 0.00000000)
		(1.89385475 0.34845949 0.00000000)
		(1.91061453 0.35498378 0.00000000)
		(1.92737430 0.36204431 0.00000000)
		(1.94413408 0.36961498 0.00000000)
		(1.96089385 0.37766779 0.00000000)
		(1.97765363 0.38617297 0.00000000)
		(1.99441341 0.39509906 0.00000000)
		(2.01117318 0.40441305 0.00000000)
		(2.02793296 0.41408051 0.00000000)
		(2.04469274 0.42406569 0.00000000)
		(2.06145251 0.43433166 0.00000000)
		(2.07821229 0.44484045 0.00000000)
		(2.09497207 0.45555322 0.00000000)
		(2.11173184 0.46643035 0.00000000)
		(2.12849162 0.47743161 0.00000000)
		(2.14525140 0.48851632 0.00000000)
		(2.16201117 0.49964350 0.00000000)
		(2.17877095 0.51077200 0.00000000)
		(2.19553073 0.52186067 0.00000000)
		(2.21229050 0.53286849 0.00000000)
		(2.22905028 0.54375478 0.00000000)
		(2.24581006 0.55447927 0.00000000)
		(2.26256983 0.56500230 0.00000000)
		(2.27932961 0.57528496 0.00000000)
		(2.29608939 0.58528924 0.00000000)
		(2.31284916 0.59497813 0.00000000)
		(2.32960894 0.60431580 0.00000000)
		(2.34636872 0.61326774 0.00000000)
		(2.36312849 0.62180082 0.00000000)
		(2.37988827 0.62988351 0.00000000)
		(2.39664804 0.63748591 0.00000000)
		(2.41340782 0.64457991 0.00000000)
		(2.43016760 0.65113928 0.00000000)
		(2.44692737 0.65713976 0.00000000)
		(2.46368715 0.66255917 0.00000000)
		(2.48044693 0.66737746 0.00000000)
		(2.49720670 0.67157681 0.00000000)
		(2.51396648 0.67514171 0.00000000)
		(2.53072626 0.67805895 0.00000000)