/*--------------------------------*- C++ -*----------------------------------*\\
/*--------------------------------*- C++ -*----------------------------------*\\
| =========                 |                                                 |
| \\\\      /  F ield         | OpenFOAM: The Open Source CFD Toolbox           |
|  \\\\    /   O peration     | Version:  v2012                                 |
|   \\\\  /    A nd           | Website:  www.openfoam.com                      |
|    \\\\/     M anipulation  |                                                 |
\\*---------------------------------------------------------------------------*/
FoamFile
{
    version     2.0;
    format      ascii;
    class       dictionary;
    object      blockMeshDict;
}
// * * * * * * * * * * * * * * * * * * * * * * * * * * * * * * * * * * * * * //

scale   0.01;

xmin -1;
xmax 5;
ymin 0;
ymax 0.5;
zmin 0;
zmax 0.1;

vertices
(
    (-1.00000000 -0.05854352 0.00000000)
    (4.00000000 0.08691587 0.00000000)
    (4.00000000 0.58691587 0.00000000)
    (-1.00000000 0.44145648 0.00000000)
    (-1.00000000 -0.05854352 0.10000000)
    (4.00000000 0.08691587 0.10000000)
    (4.00000000 0.58691587 0.10000000)
    (-1.00000000 0.44145648 0.10000000)
);

blocks
(
    hex (0 1 2 3 4 5 6 7) (200 20 1) simpleGrading (1 1 1)
);

edges
(
	polyLine 0 1
	(
		(-1.00000000 -0.05854352 0.00000000)
		(-0.98000000 -0.05854352 0.00000000)
		(-0.96000000 -0.05854352 0.00000000)
		(-0.94000000 -0.05854352 0.00000000)
		(-0.92000000 -0.05854352 0.00000000)
		(-0.90000000 -0.05854352 0.00000000)
		(-0.88000000 -0.05854352 0.00000000)
		(-0.86000000 -0.05854352 0.00000000)
		(-0.84000000 -0.05854352 0.00000000)
		(-0.82000000 -0.05854352 0.00000000)
		(-0.80000000 -0.05854352 0.00000000)
		(-0.78000000 -0.05854352 0.00000000)
		(-0.76000000 -0.05854352 0.00000000)
		(-0.74000000 -0.05854352 0.00000000)
		(-0.72000000 -0.05854352 0.00000000)
		(-0.70000000 -0.05854352 0.00000000)
		(-0.68000000 -0.05854352 0.00000000)
		(-0.66000000 -0.05854352 0.00000000)
		(-0.64000000 -0.05854352 0.00000000)
		(-0.62000000 -0.05854352 0.00000000)
		(-0.60000000 -0.05854352 0.00000000)
		(-0.58000000 -0.05854352 0.00000000)
		(-0.56000000 -0.05854352 0.00000000)
		(-0.54000000 -0.05854352 0.00000000)
		(-0.52000000 -0.05854352 0.00000000)
		(-0.50000000 -0.05854352 0.00000000)
		(-0.48000000 -0.05854352 0.00000000)
		(-0.46000000 -0.05854352 0.00000000)
		(-0.44000000 -0.05854352 0.00000000)
		(-0.42000000 -0.05854352 0.00000000)
		(-0.40000000 -0.05854352 0.00000000)
		(-0.38000000 -0.05854352 0.00000000)
		(-0.36000000 -0.05854352 0.00000000)
		(-0.34000000 -0.05854352 0.00000000)
		(-0.32000000 -0.05854352 0.00000000)
		(-0.30000000 -0.05854352 0.00000000)
		(-0.28000000 -0.05854352 0.00000000)
		(-0.26000000 -0.05854352 0.00000000)
		(-0.24000000 -0.05854352 0.00000000)
		(-0.22000000 -0.05854352 0.00000000)
		(-0.20000000 -0.05854352 0.00000000)
		(-0.18000000 -0.05854352 0.00000000)
		(-0.16000000 -0.05854352 0.00000000)
		(-0.14000000 -0.05854352 0.00000000)
		(-0.12000000 -0.05854352 0.00000000)
		(-0.10000000 -0.05854352 0.00000000)
		(-0.08162011 -0.05746365 0.00000000)
		(-0.06324022 -0.05422405 0.00000000)
		(-0.04486034 -0.04882472 0.00000000)
		(-0.02648045 -0.04126565 0.00000000)
		(-0.00810056 -0.03154685 0.00000000)
		(0.01027933 -0.01966832 0.00000000)
		(0.02865922 -0.00563005 0.00000000)
		(0.04703911 0.01056795 0.00000000)
		(0.06541899 0.02892568 0.00000000)
		(0.08379888 0.04944314 0.00000000)
		(0.10055866 0.07057143 0.00000000)
		(0.11731844 0.09116478 0.00000000)
		(0.13407821 0.11106711 0.00000000)
		(0.15083799 0.13012754 0.00000000)
		(0.16759777 0.14820160 0.00000000)
		(0.18435754 0.16515230 0.00000000)
		(0.20111732 0.18085113 0.00000000)
		(0.21787709 0.19517911 0.00000000)
		(0.23463687 0.20802764 0.00000000)
		(0.25139665 0.21929930 0.00000000)
		(0.26815642 0.22890868 0.00000000)
		(0.28491620 0.23678293 0.00000000)
		(0.30167598 0.24286235 0.00000000)
		(0.31843575 0.24710088 0.00000000)
		(0.33519553 0.24946638 0.00000000)
		(0.35195531 0.24994091 0.00000000)
		(0.36871508 0.24852090 0.00000000)
		(0.38547486 0.24521709 0.00000000)
		(0.40223464 0.24005453 0.00000000)
		(0.41899441 0.23307235 0.00000000)
		(0.43575419 0.22432349 0.00000000)
		(0.45251397 0.21387424 0.00000000)
		(0.46927374 0.20180383 0.00000000)
		(0.48603352 0.18820374 0.00000000)
		(0.50279330 0.17317706 0.00000000)
		(0.51955307 0.15683770 0.00000000)
		(0.53631285 0.13930951 0.00000000)
		(0.55307263 0.12072534 0.00000000)
		(0.56983240 0.10122608 0.00000000)
		(0.58659218 0.08095952 0.00000000)
		(0.60335196 0.06007929 0.00000000)
		(0.62011173 0.03874366 0.00000000)
		(0.63687151 0.01711435 0.00000000)
		(0.65363128 -0.00464469 0.00000000)
		(0.67039106 -0.02636852 0.00000000)
		(0.68715084 -0.04789248 0.00000000)
		(0.70391061 -0.06905341 0.00000000)
		(0.72067039 -0.08969092 0.00000000)
		(0.73743017 -0.10964857 0.00000000)
		(0.75418994 -0.12877508 0.00000000)
		(0.77094972 -0.14692547 0.00000000)
		(0.78770950 -0.16396216 0.00000000)
		(0.80446927 -0.17975602 0.00000000)
		(0.82122905 -0.19418733 0.00000000)
		(0.83798883 -0.20714669 0.00000000)
		(0.85474860 -0.21853588 0.00000000)
		(0.87150838 -0.22826856 0.00000000)
		(0.88826816 -0.23627097 0.00000000)
		(0.90502793 -0.24248243 0.00000000)
		(0.92178771 -0.24685588 0.00000000)
		(0.93854749 -0.24935815 0.00000000)
		(0.95530726 -0.24997029 0.00000000)
		(0.97206704 -0.24868764 0.00000000)
		(0.98882682 -0.24551994 0.00000000)
		(1.00558659 -0.24049120 0.00000000)
		(1.02234637 -0.23363953 0.00000000)
		(1.03910615 -0.22501686 0.00000000)
		(1.05586592 -0.21468857 0.00000000)
		(1.07262570 -0.20273293 0.00000000)
		(1.08938547 -0.18924058 0.00000000)
		(1.10614525 -0.17431377 0.00000000)
		(1.12290503 -0.15806567 0.00000000)
		(1.13966480 -0.14061943 0.00000000)
		(1.15642458 -0.12210729 0.00000000)
		(1.17318436 -0.10266957 0.00000000)
		(1.18994413 -0.08245362 0.00000000)
		(1.20670391 -0.06161266 0.00000000)
		(1.22346369 -0.04030469 0.00000000)
		(1.24022346 -0.01869120 0.00000000)
		(1.25698324 0.00306397 0.00000000)
		(1.27374302 0.02479591 0.00000000)
		(1.29050279 0.04633990 0.00000000)
		(1.30726257 0.06753263 0.00000000)
		(1.32402235 0.08821347 0.00000000)
		(1.34078212 0.10822564 0.00000000)
		(1.35754190 0.12741746 0.00000000)
		(1.37430168 0.14564346 0.00000000)
		(1.39106145 0.16276547 0.00000000)
		(1.40782123 0.17865373 0.00000000)
		(1.42458101 0.19318778 0.00000000)
		(1.44134078 0.20625747 0.00000000)
		(1.45810056 0.21776372 0.00000000)
		(1.47486034 0.22761932 0.00000000)
		(1.49162011 0.23574956 0.00000000)
		(1.50837989 0.24209282 0.00000000)
		(1.52513966 0.24660101 0.00000000)
		(1.54189944 0.24923995 0.00000000)
		(1.55865922 0.24998966 0.00000000)
		(1.57541899 0.24884444 0.00000000)
		(1.59217877 0.24581298 0.00000000)
		(1.60893855 0.24091825 0.00000000)
		(1.62569832 0.23419736 0.00000000)
		(1.64245810 0.22570124 0.00000000)
		(1.65921788 0.21549431 0.00000000)
		(1.67597765 0.20365393 0.00000000)
		(1.69273743 0.19026985 0.00000000)
		(1.70949721 0.17544352 0.00000000)
		(1.72625698 0.15928732 0.00000000)
		(1.74301676 0.14192373 0.00000000)
		(1.75977654 0.12348435 0.00000000)
		(1.77653631 0.10410895 0.00000000)
		(1.79329609 0.08394441 0.00000000)
		(1.81005587 0.06314357 0.00000000)
		(1.82681564 0.04186410 0.00000000)
		(1.84357542 0.02026730 0.00000000)
		(1.86033520 -0.00148312 0.00000000)
		(1.87709497 -0.02322231 0.00000000)
		(1.89385475 -0.04478547 0.00000000)
		(1.91061453 -0.06600915 0.00000000)
		(1.92737430 -0.08673249 0.00000000)
		(1.94413408 -0.10679839 0.00000000)
		(1.96089385 -0.12605475 0.00000000)
		(1.97765363 -0.14435562 0.00000000)
		(1.99441341 -0.16156228 0.00000000)
		(2.01117318 -0.17754428 0.00000000)
		(2.02793296 -0.19218050 0.00000000)
		(2.04469274 -0.20535999 0.00000000)
		(2.06145251 -0.21698285 0.00000000)
		(2.07821229 -0.22696097 0.00000000)
		(2.09497207 -0.23521873 0.00000000)
		(2.11173184 -0.24169352 0.00000000)
		(2.12849162 -0.24633627 0.00000000)
		(2.14525140 -0.24911179 0.00000000)
		(2.16201117 -0.24999904 0.00000000)
		(2.17877095 -0.24899129 0.00000000)
		(2.19553073 -0.24609619 0.00000000)
		(2.21229050 -0.24133567 0.00000000)
		(2.22905028 -0.23474582 0.00000000)
		(2.24581006 -0.22637660 0.00000000)
		(2.26256983 -0.21629144 0.00000000)
		(2.27932961 -0.20456678 0.00000000)
		(2.29608939 -0.19129151 0.00000000)
		(2.31284916 -0.17656624 0.00000000)
		(2.32960894 -0.16050260 0.00000000)
		(2.34636872 -0.14322235 0.00000000)
		(2.36312849 -0.12485647 0.00000000)
		(2.37988827 -0.10554417 0.00000000)
		(2.39664804 -0.08543185 0.00000000)
		(2.41340782 -0.06467195 0.00000000)
		(2.43016760 -0.04342184 0.00000000)
		(2.44692737 -0.02184260 0.00000000)
		(2.46368715 -0.00009778 0.00000000)
		(2.48044693 0.02164778 0.00000000)
		(2.49720670 0.04322924 0.00000000)
		(2.51396648 0.06448303 0.00000000)
		(2.53072626 0.08524804 0.00000000)
		(2.54748603 0.10536686 0.00000000)
		(2.56424581 0.12468701 0.00000000)
		(2.58100559 0.14306202 0.00000000)
		(2.59776536 0.16035262 0.00000000)
		(2.61452514 0.17642774 0.00000000)
		(2.63128492 0.19116554 0.00000000)
		(2.64804469 0.20445430 0.00000000)
		(2.66480447 0.21619330 0.00000000)
		(2.68156425 0.22629355 0.00000000)
		(2.69832402 0.23467849 0.00000000)
		(2.71508380 0.24128456 0.00000000)
		(2.73184358 0.24606169 0.00000000)
		(2.74860335 0.24897367 0.00000000)
		(2.76536313 0.24999842 0.00000000)
		(2.78212291 0.24912819 0.00000000)
		(2.79888268 0.24636955 0.00000000)
		(2.81564246 0.24174344 0.00000000)
		(2.83240223 0.23528490 0.00000000)
		(2.84916201 0.22704290 0.00000000)
		(2.86592179 0.21707991 0.00000000)
		(2.88268156 0.20547145 0.00000000)
		(2.89944134 0.19230552 0.00000000)
		(2.91620112 0.17768191 0.00000000)
		(2.93296089 0.16171146 0.00000000)
		(2.95166480 0.14750030 0.00000000)
		(2.97036872 0.13478505 0.00000000)
		(2.98907263 0.12356571 0.00000000)
		(3.00777654 0.11384229 0.00000000)
		(3.02648045 0.10561477 0.00000000)
		(3.04518436 0.09888317 0.00000000)
		(3.06388827 0.09364748 0.00000000)
		(3.08259218 0.08990770 0.00000000)
		(3.10129609 0.08766383 0.00000000)
		(3.12000000 0.08691587 0.00000000)
		(3.14000000 0.08691587 0.00000000)
		(3.16000000 0.08691587 0.00000000)
		(3.18000000 0.08691587 0.00000000)
		(3.20000000 0.08691587 0.00000000)
		(3.22000000 0.08691587 0.00000000)
		(3.24000000 0.08691587 0.00000000)
		(3.26000000 0.08691587 0.00000000)
		(3.28000000 0.08691587 0.00000000)
		(3.30000000 0.08691587 0.00000000)
		(3.32000000 0.08691587 0.00000000)
		(3.34000000 0.08691587 0.00000000)
		(3.36000000 0.08691587 0.00000000)
		(3.38000000 0.08691587 0.00000000)
		(3.40000000 0.08691587 0.00000000)
		(3.42000000 0.08691587 0.00000000)
		(3.44000000 0.08691587 0.00000000)
		(3.46000000 0.08691587 0.00000000)
		(3.48000000 0.08691587 0.00000000)
		(3.50000000 0.08691587 0.00000000)
		(3.52000000 0.08691587 0.00000000)
		(3.54000000 0.08691587 0.00000000)
		(3.56000000 0.08691587 0.00000000)
		(3.58000000 0.08691587 0.00000000)
		(3.60000000 0.08691587 0.00000000)
		(3.62000000 0.08691587 0.00000000)
		(3.64000000 0.08691587 0.00000000)
		(3.66000000 0.08691587 0.00000000)
		(3.68000000 0.08691587 0.00000000)
		(3.70000000 0.08691587 0.00000000)
		(3.72000000 0.08691587 0.00000000)
		(3.74000000 0.08691587 0.00000000)
		(3.76000000 0.08691587 0.00000000)
		(3.78000000 0.08691587 0.00000000)
		(3.80000000 0.08691587 0.00000000)
		(3.82000000 0.08691587 0.00000000)
		(3.84000000 0.08691587 0.00000000)
		(3.86000000 0.08691587 0.00000000)
		(3.88000000 0.08691587 0.00000000)
		(3.90000000 0.08691587 0.00000000)
		(3.92000000 0.08691587 0.00000000)
		(3.94000000 0.08691587 0.00000000)
		(3.96000000 0.08691587 0.00000000)
		(3.98000000 0.08691587 0.00000000)
		(4.00000000 0.08691587 0.00000000)
	)
	polyLine 4 5
	(
		(-1.00000000 -0.05854352 0.10000000)
		(-0.98000000 -0.05854352 0.10000000)
		(-0.96000000 -0.05854352 0.10000000)
		(-0.94000000 -0.05854352 0.10000000)
		(-0.92000000 -0.05854352 0.10000000)
		(-0.90000000 -0.05854352 0.10000000)
		(-0.88000000 -0.05854352 0.10000000)
		(-0.86000000 -0.05854352 0.10000000)
		(-0.84000000 -0.05854352 0.10000000)
		(-0.82000000 -0.05854352 0.10000000)
		(-0.80000000 -0.05854352 0.10000000)
		(-0.78000000 -0.05854352 0.10000000)
		(-0.76000000 -0.05854352 0.10000000)
		(-0.74000000 -0.05854352 0.10000000)
		(-0.72000000 -0.05854352 0.10000000)
		(-0.70000000 -0.05854352 0.10000000)
		(-0.68000000 -0.05854352 0.10000000)
		(-0.66000000 -0.05854352 0.10000000)
		(-0.64000000 -0.05854352 0.10000000)
		(-0.62000000 -0.05854352 0.10000000)
		(-0.60000000 -0.05854352 0.10000000)
		(-0.58000000 -0.05854352 0.10000000)
		(-0.56000000 -0.05854352 0.10000000)
		(-0.54000000 -0.05854352 0.10000000)
		(-0.52000000 -0.05854352 0.10000000)
		(-0.50000000 -0.05854352 0.10000000)
		(-0.48000000 -0.05854352 0.10000000)
		(-0.46000000 -0.05854352 0.10000000)
		(-0.44000000 -0.05854352 0.10000000)
		(-0.42000000 -0.05854352 0.10000000)
		(-0.40000000 -0.05854352 0.10000000)
		(-0.38000000 -0.05854352 0.10000000)
		(-0.36000000 -0.05854352 0.10000000)
		(-0.34000000 -0.05854352 0.10000000)
		(-0.32000000 -0.05854352 0.10000000)
		(-0.30000000 -0.05854352 0.10000000)
		(-0.28000000 -0.05854352 0.10000000)
		(-0.26000000 -0.05854352 0.10000000)
		(-0.24000000 -0.05854352 0.10000000)
		(-0.22000000 -0.05854352 0.10000000)
		(-0.20000000 -0.05854352 0.10000000)
		(-0.18000000 -0.05854352 0.10000000)
		(-0.16000000 -0.05854352 0.10000000)
		(-0.14000000 -0.05854352 0.10000000)
		(-0.12000000 -0.05854352 0.10000000)
		(-0.10000000 -0.05854352 0.10000000)
		(-0.08162011 -0.05746365 0.10000000)
		(-0.06324022 -0.05422405 0.10000000)
		(-0.04486034 -0.04882472 0.10000000)
		(-0.02648045 -0.04126565 0.10000000)
		(-0.00810056 -0.03154685 0.10000000)
		(0.01027933 -0.01966832 0.10000000)
		(0.02865922 -0.00563005 0.10000000)
		(0.04703911 0.01056795 0.10000000)
		(0.06541899 0.02892568 0.10000000)
		(0.08379888 0.04944314 0.10000000)
		(0.10055866 0.07057143 0.10000000)
		(0.11731844 0.09116478 0.10000000)
		(0.13407821 0.11106711 0.10000000)
		(0.15083799 0.13012754 0.10000000)
		(0.16759777 0.14820160 0.10000000)
		(0.18435754 0.16515230 0.10000000)
		(0.20111732 0.18085113 0.10000000)
		(0.21787709 0.19517911 0.10000000)
		(0.23463687 0.20802764 0.10000000)
		(0.25139665 0.21929930 0.10000000)
		(0.26815642 0.22890868 0.10000000)
		(0.28491620 0.23678293 0.10000000)
		(0.30167598 0.24286235 0.10000000)
		(0.31843575 0.24710088 0.10000000)
		(0.33519553 0.24946638 0.10000000)
		(0.35195531 0.24994091 0.10000000)
		(0.36871508 0.24852090 0.10000000)
		(0.38547486 0.24521709 0.10000000)
		(0.40223464 0.24005453 0.10000000)
		(0.41899441 0.23307235 0.10000000)
		(0.43575419 0.22432349 0.10000000)
		(0.45251397 0.21387424 0.10000000)
		(0.46927374 0.20180383 0.10000000)
		(0.48603352 0.18820374 0.10000000)
		(0.50279330 0.17317706 0.10000000)
		(0.51955307 0.15683770 0.10000000)
		(0.53631285 0.13930951 0.10000000)
		(0.55307263 0.12072534 0.10000000)
		(0.56983240 0.10122608 0.10000000)
		(0.58659218 0.08095952 0.10000000)
		(0.60335196 0.06007929 0.10000000)
		(0.62011173 0.03874366 0.10000000)
		(0.63687151 0.01711435 0.10000000)
		(0.65363128 -0.00464469 0.10000000)
		(0.67039106 -0.02636852 0.10000000)
		(0.68715084 -0.04789248 0.10000000)
		(0.70391061 -0.06905341 0.10000000)
		(0.72067039 -0.08969092 0.10000000)
		(0.73743017 -0.10964857 0.10000000)
		(0.75418994 -0.12877508 0.10000000)
		(0.77094972 -0.14692547 0.10000000)
		(0.78770950 -0.16396216 0.10000000)
		(0.80446927 -0.17975602 0.10000000)
		(0.82122905 -0.19418733 0.10000000)
		(0.83798883 -0.20714669 0.10000000)
		(0.85474860 -0.21853588 0.10000000)
		(0.87150838 -0.22826856 0.10000000)
		(0.88826816 -0.23627097 0.10000000)
		(0.90502793 -0.24248243 0.10000000)
		(0.92178771 -0.24685588 0.10000000)
		(0.93854749 -0.24935815 0.10000000)
		(0.95530726 -0.24997029 0.10000000)
		(0.97206704 -0.24868764 0.10000000)
		(0.98882682 -0.24551994 0.10000000)
		(1.00558659 -0.24049120 0.10000000)
		(1.02234637 -0.23363953 0.10000000)
		(1.03910615 -0.22501686 0.10000000)
		(1.05586592 -0.21468857 0.10000000)
		(1.07262570 -0.20273293 0.10000000)
		(1.08938547 -0.18924058 0.10000000)
		(1.10614525 -0.17431377 0.10000000)
		(1.12290503 -0.15806567 0.10000000)
		(1.13966480 -0.14061943 0.10000000)
		(1.15642458 -0.12210729 0.10000000)
		(1.17318436 -0.10266957 0.10000000)
		(1.18994413 -0.08245362 0.10000000)
		(1.20670391 -0.06161266 0.10000000)
		(1.22346369 -0.04030469 0.10000000)
		(1.24022346 -0.01869120 0.10000000)
		(1.25698324 0.00306397 0.10000000)
		(1.27374302 0.02479591 0.10000000)
		(1.29050279 0.04633990 0.10000000)
		(1.30726257 0.06753263 0.10000000)
		(1.32402235 0.08821347 0.10000000)
		(1.34078212 0.10822564 0.10000000)
		(1.35754190 0.12741746 0.10000000)
		(1.37430168 0.14564346 0.10000000)
		(1.39106145 0.16276547 0.10000000)
		(1.40782123 0.17865373 0.10000000)
		(1.42458101 0.19318778 0.10000000)
		(1.44134078 0.20625747 0.10000000)
		(1.45810056 0.21776372 0.10000000)
		(1.47486034 0.22761932 0.10000000)
		(1.49162011 0.23574956 0.10000000)
		(1.50837989 0.24209282 0.10000000)
		(1.52513966 0.24660101 0.10000000)
		(1.54189944 0.24923995 0.10000000)
		(1.55865922 0.24998966 0.10000000)
		(1.57541899 0.24884444 0.10000000)
		(1.59217877 0.24581298 0.10000000)
		(1.60893855 0.24091825 0.10000000)
		(1.62569832 0.23419736 0.10000000)
		(1.64245810 0.22570124 0.10000000)
		(1.65921788 0.21549431 0.10000000)
		(1.67597765 0.20365393 0.10000000)
		(1.69273743 0.19026985 0.10000000)
		(1.70949721 0.17544352 0.10000000)
		(1.72625698 0.15928732 0.10000000)
		(1.74301676 0.14192373 0.10000000)
		(1.75977654 0.12348435 0.10000000)
		(1.77653631 0.10410895 0.10000000)
		(1.79329609 0.08394441 0.10000000)
		(1.81005587 0.06314357 0.10000000)
		(1.82681564 0.04186410 0.10000000)
		(1.84357542 0.02026730 0.10000000)
		(1.86033520 -0.00148312 0.10000000)
		(1.87709497 -0.02322231 0.10000000)
		(1.89385475 -0.04478547 0.10000000)
		(1.91061453 -0.06600915 0.10000000)
		(1.92737430 -0.08673249 0.10000000)
		(1.94413408 -0.10679839 0.10000000)
		(1.96089385 -0.12605475 0.10000000)
		(1.97765363 -0.14435562 0.10000000)
		(1.99441341 -0.16156228 0.10000000)
		(2.01117318 -0.17754428 0.10000000)
		(2.02793296 -0.19218050 0.10000000)
		(2.04469274 -0.20535999 0.10000000)
		(2.06145251 -0.21698285 0.10000000)
		(2.07821229 -0.22696097 0.10000000)
		(2.09497207 -0.23521873 0.10000000)
		(2.11173184 -0.24169352 0.10000000)
		(2.12849162 -0.24633627 0.10000000)
		(2.14525140 -0.24911179 0.10000000)
		(2.16201117 -0.24999904 0.10000000)
		(2.17877095 -0.24899129 0.10000000)
		(2.19553073 -0.24609619 0.10000000)
		(2.21229050 -0.24133567 0.10000000)
		(2.22905028 -0.23474582 0.10000000)
		(2.24581006 -0.22637660 0.10000000)
		(2.26256983 -0.21629144 0.10000000)
		(2.27932961 -0.20456678 0.10000000)
		(2.29608939 -0.19129151 0.10000000)
		(2.31284916 -0.17656624 0.10000000)
		(2.32960894 -0.16050260 0.10000000)
		(2.34636872 -0.14322235 0.10000000)
		(2.36312849 -0.12485647 0.10000000)
		(2.37988827 -0.10554417 0.10000000)
		(2.39664804 -0.08543185 0.10000000)
		(2.41340782 -0.06467195 0.10000000)
		(2.43016760 -0.04342184 0.10000000)
		(2.44692737 -0.02184260 0.10000000)
		(2.46368715 -0.00009778 0.10000000)
		(2.48044693 0.02164778 0.10000000)
		(2.49720670 0.04322924 0.10000000)
		(2.51396648 0.06448303 0.10000000)
		(2.53072626 0.08524804 0.10000000)
		(2.54748603 0.10536686 0.10000000)
		(2.56424581 0.12468701 0.10000000)
		(2.58100559 0.14306202 0.10000000)
		(2.59776536 0.16035262 0.10000000)
		(2.61452514 0.17642774 0.10000000)
		(2.63128492 0.19116554 0.10000000)
		(2.64804469 0.20445430 0.10000000)
		(2.66480447 0.21619330 0.10000000)
		(2.68156425 0.22629355 0.10000000)
		(2.69832402 0.23467849 0.10000000)
		(2.71508380 0.24128456 0.10000000)
		(2.73184358 0.24606169 0.10000000)
		(2.74860335 0.24897367 0.10000000)
		(2.76536313 0.24999842 0.10000000)
		(2.78212291 0.24912819 0.10000000)
		(2.79888268 0.24636955 0.10000000)
		(2.81564246 0.24174344 0.10000000)
		(2.83240223 0.23528490 0.10000000)
		(2.84916201 0.22704290 0.10000000)
		(2.86592179 0.21707991 0.10000000)
		(2.88268156 0.20547145 0.10000000)
		(2.89944134 0.19230552 0.10000000)
		(2.91620112 0.17768191 0.10000000)
		(2.93296089 0.16171146 0.10000000)
		(2.95166480 0.14750030 0.10000000)
		(2.97036872 0.13478505 0.10000000)
		(2.98907263 0.12356571 0.10000000)
		(3.00777654 0.11384229 0.10000000)
		(3.02648045 0.10561477 0.10000000)
		(3.04518436 0.09888317 0.10000000)
		(3.06388827 0.09364748 0.10000000)
		(3.08259218 0.08990770 0.10000000)
		(3.10129609 0.08766383 0.10000000)
		(3.12000000 0.08691587 0.10000000)
		(3.14000000 0.08691587 0.10000000)
		(3.16000000 0.08691587 0.10000000)
		(3.18000000 0.08691587 0.10000000)
		(3.20000000 0.08691587 0.10000000)
		(3.22000000 0.08691587 0.10000000)
		(3.24000000 0.08691587 0.10000000)
		(3.26000000 0.08691587 0.10000000)
		(3.28000000 0.08691587 0.10000000)
		(3.30000000 0.08691587 0.10000000)
		(3.32000000 0.08691587 0.10000000)
		(3.34000000 0.08691587 0.10000000)
		(3.36000000 0.08691587 0.10000000)
		(3.38000000 0.08691587 0.10000000)
		(3.40000000 0.08691587 0.10000000)
		(3.42000000 0.08691587 0.10000000)
		(3.44000000 0.08691587 0.10000000)
		(3.46000000 0.08691587 0.10000000)
		(3.48000000 0.08691587 0.10000000)
		(3.50000000 0.08691587 0.10000000)
		(3.52000000 0.08691587 0.10000000)
		(3.54000000 0.08691587 0.10000000)
		(3.56000000 0.08691587 0.10000000)
		(3.58000000 0.08691587 0.10000000)
		(3.60000000 0.08691587 0.10000000)
		(3.62000000 0.08691587 0.10000000)
		(3.64000000 0.08691587 0.10000000)
		(3.66000000 0.08691587 0.10000000)
		(3.68000000 0.08691587 0.10000000)
		(3.70000000 0.08691587 0.10000000)
		(3.72000000 0.08691587 0.10000000)
		(3.74000000 0.08691587 0.10000000)
		(3.76000000 0.08691587 0.10000000)
		(3.78000000 0.08691587 0.10000000)
		(3.80000000 0.08691587 0.10000000)
		(3.82000000 0.08691587 0.10000000)
		(3.84000000 0.08691587 0.10000000)
		(3.86000000 0.08691587 0.10000000)
		(3.88000000 0.08691587 0.10000000)
		(3.90000000 0.08691587 0.10000000)
		(3.92000000 0.08691587 0.10000000)
		(3.94000000 0.08691587 0.10000000)
		(3.96000000 0.08691587 0.10000000)
		(3.98000000 0.08691587 0.10000000)
		(4.00000000 0.08691587 0.10000000)
	)
	polyLine 3 2
	(
		(-1.00000000 0.44145648 0.00000000)
		(-0.98000000 0.44107915 0.00000000)
		(-0.96000000 0.44070182 0.00000000)
		(-0.94000000 0.44032448 0.00000000)
		(-0.92000000 0.43994715 0.00000000)
		(-0.90000000 0.43956982 0.00000000)
		(-0.88000000 0.43919248 0.00000000)
		(-0.86000000 0.43881515 0.00000000)
		(-0.84000000 0.43843782 0.00000000)
		(-0.82000000 0.43806048 0.00000000)
		(-0.80000000 0.43768315 0.00000000)
		(-0.78000000 0.43730582 0.00000000)
		(-0.76000000 0.43692849 0.00000000)
		(-0.74000000 0.43655115 0.00000000)
		(-0.72000000 0.43617382 0.00000000)
		(-0.70000000 0.43579649 0.00000000)
		(-0.68000000 0.43541915 0.00000000)
		(-0.66000000 0.43504182 0.00000000)
		(-0.64000000 0.43466449 0.00000000)
		(-0.62000000 0.43428715 0.00000000)
		(-0.60000000 0.43390982 0.00000000)
		(-0.58000000 0.43353249 0.00000000)
		(-0.56000000 0.43315516 0.00000000)
		(-0.54000000 0.43277782 0.00000000)
		(-0.52000000 0.43240049 0.00000000)
		(-0.50000000 0.43202316 0.00000000)
		(-0.48000000 0.43164582 0.00000000)
		(-0.46000000 0.43126849 0.00000000)
		(-0.44000000 0.43089116 0.00000000)
		(-0.42000000 0.43051382 0.00000000)
		(-0.40000000 0.43013649 0.00000000)
		(-0.38000000 0.42975916 0.00000000)
		(-0.36000000 0.42938183 0.00000000)
		(-0.34000000 0.42900449 0.00000000)
		(-0.32000000 0.42862716 0.00000000)
		(-0.30000000 0.42824983 0.00000000)
		(-0.28000000 0.42787249 0.00000000)
		(-0.26000000 0.42749516 0.00000000)
		(-0.24000000 0.42711783 0.00000000)
		(-0.22000000 0.42674049 0.00000000)
		(-0.20000000 0.42636316 0.00000000)
		(-0.18000000 0.42598583 0.00000000)
		(-0.16000000 0.42560850 0.00000000)
		(-0.14000000 0.42523116 0.00000000)
		(-0.12000000 0.42485383 0.00000000)
		(-0.10000000 0.42447650 0.00000000)
		(-0.08162011 0.42326146 0.00000000)
		(-0.06324022 0.42544047 0.00000000)
		(-0.04486034 0.43101353 0.00000000)
		(-0.02648045 0.43998064 0.00000000)
		(-0.00810056 0.45234181 0.00000000)
		(0.01027933 0.46809702 0.00000000)
		(0.02865922 0.48724628 0.00000000)
		(0.04703911 0.50978959 0.00000000)
		(0.06541899 0.53572695 0.00000000)
		(0.08379888 0.56505837 0.00000000)
		(0.10055866 0.59285942 0.00000000)
		(0.11731844 0.61995661 0.00000000)
		(0.13407821 0.64614452 0.00000000)
		(0.15083799 0.67122465 0.00000000)
		(0.16759777 0.69500689 0.00000000)
		(0.18435754 0.71731099 0.00000000)
		(0.20111732 0.73796786 0.00000000)
		(0.21787709 0.75682093 0.00000000)
		(0.23463687 0.77372729 0.00000000)
		(0.25139665 0.78855880 0.00000000)
		(0.26815642 0.80120302 0.00000000)
		(0.28491620 0.81156413 0.00000000)
		(0.30167598 0.81956357 0.00000000)
		(0.31843575 0.82514071 0.00000000)
		(0.33519553 0.82825329 0.00000000)
		(0.35195531 0.82887770 0.00000000)
		(0.36871508 0.82700921 0.00000000)
		(0.38547486 0.82266198 0.00000000)
		(0.40223464 0.81586897 0.00000000)
		(0.41899441 0.80668168 0.00000000)
		(0.43575419 0.79516972 0.00000000)
		(0.45251397 0.78142038 0.00000000)
		(0.46927374 0.76553787 0.00000000)
		(0.48603352 0.74764258 0.00000000)
		(0.50279330 0.72787015 0.00000000)
		(0.51955307 0.70637046 0.00000000)
		(0.53631285 0.68330648 0.00000000)
		(0.55307263 0.65885304 0.00000000)
		(0.56983240 0.63319548 0.00000000)
		(0.58659218 0.60652830 0.00000000)
		(0.60335196 0.57905364 0.00000000)
		(0.62011173 0.55097975 0.00000000)
		(0.63687151 0.52251943 0.00000000)
		(0.65363128 0.49388841 0.00000000)
		(0.67039106 0.46530372 0.00000000)
		(0.68715084 0.43698203 0.00000000)
		(0.70391061 0.40913802 0.00000000)
		(0.72067039 0.38198274 0.00000000)
		(0.73743017 0.35572203 0.00000000)
		(0.75418994 0.33055495 0.00000000)
		(0.77094972 0.30667227 0.00000000)
		(0.78770950 0.28425502 0.00000000)
		(0.80446927 0.26347311 0.00000000)
		(0.82122905 0.24448409 0.00000000)
		(0.83798883 0.22743187 0.00000000)
		(0.85474860 0.21244573 0.00000000)
		(0.87150838 0.19963926 0.00000000)
		(0.88826816 0.18910952 0.00000000)
		(0.90502793 0.18093634 0.00000000)
		(0.92178771 0.17518166 0.00000000)
		(0.93854749 0.17188912 0.00000000)
		(0.95530726 0.17108366 0.00000000)
		(0.97206704 0.17277139 0.00000000)
		(0.98882682 0.17693952 0.00000000)
		(1.00558659 0.18355645 0.00000000)
		(1.02234637 0.19257203 0.00000000)
		(1.03910615 0.20391791 0.00000000)
		(1.05586592 0.21750811 0.00000000)
		(1.07262570 0.23323960 0.00000000)
		(1.08938547 0.25099313 0.00000000)
		(1.10614525 0.27063414 0.00000000)
		(1.12290503 0.29201375 0.00000000)
		(1.13966480 0.31496990 0.00000000)
		(1.15642458 0.33932858 0.00000000)
		(1.17318436 0.36490515 0.00000000)
		(1.18994413 0.39150574 0.00000000)
		(1.20670391 0.41892872 0.00000000)
		(1.22346369 0.44696622 0.00000000)
		(1.24022346 0.47540571 0.00000000)
		(1.25698324 0.50403164 0.00000000)
		(1.27374302 0.53262700 0.00000000)
		(1.29050279 0.56097505 0.00000000)
		(1.30726257 0.58886091 0.00000000)
		(1.32402235 0.61607320 0.00000000)
		(1.34078212 0.64240565 0.00000000)
		(1.35754190 0.66765867 0.00000000)
		(1.37430168 0.69164083 0.00000000)
		(1.39106145 0.71417035 0.00000000)
		(1.40782123 0.73507646 0.00000000)
		(1.42458101 0.75420068 0.00000000)
		(1.44134078 0.77139806 0.00000000)
		(1.45810056 0.78653824 0.00000000)
		(1.47486034 0.79950645 0.00000000)
		(1.49162011 0.81020440 0.00000000)
		(1.50837989 0.81855100 0.00000000)
		(1.52513966 0.82448297 0.00000000)
		(1.54189944 0.82795536 0.00000000)
		(1.55865922 0.82894184 0.00000000)
		(1.57541899 0.82743493 0.00000000)
		(1.59217877 0.82344607 0.00000000)
		(1.60893855 0.81700548 0.00000000)
		(1.62569832 0.80816198 0.00000000)
		(1.64245810 0.79698261 0.00000000)
		(1.65921788 0.78355211 0.00000000)
		(1.67597765 0.76797227 0.00000000)
		(1.69273743 0.75036121 0.00000000)
		(1.70949721 0.73085240 0.00000000)
		(1.72625698 0.70959372 0.00000000)
		(1.74301676 0.68674633 0.00000000)
		(1.75977654 0.66248339 0.00000000)
		(1.77653631 0.63698883 0.00000000)
		(1.79329609 0.61045588 0.00000000)
		(1.81005587 0.58308569 0.00000000)
		(1.82681564 0.55508570 0.00000000)
		(1.84357542 0.52666816 0.00000000)
		(1.86033520 0.49804847 0.00000000)
		(1.87709497 0.46944358 0.00000000)
		(1.89385475 0.44107031 0.00000000)
		(1.91061453 0.41314372 0.00000000)
		(1.92737430 0.38587551 0.00000000)
		(1.94413408 0.35947236 0.00000000)
		(1.96089385 0.33413441 0.00000000)
		(1.97765363 0.31005373 0.00000000)
		(1.99441341 0.28741284 0.00000000)
		(2.01117318 0.26638337 0.00000000)
		(2.02793296 0.24712471 0.00000000)
		(2.04469274 0.22978285 0.00000000)
		(2.06145251 0.21448925 0.00000000)
		(2.07821229 0.20135982 0.00000000)
		(2.09497207 0.19049408 0.00000000)
		(2.11173184 0.18197441 0.00000000)
		(2.12849162 0.17586537 0.00000000)
		(2.14525140 0.17221328 0.00000000)
		(2.16201117 0.17104582 0.00000000)
		(2.17877095 0.17237184 0.00000000)
		(2.19553073 0.17618128 0.00000000)
		(2.21229050 0.18244527 0.00000000)
		(2.22905028 0.19111634 0.00000000)
		(2.24581006 0.20212875 0.00000000)
		(2.26256983 0.21539902 0.00000000)
		(2.27932961 0.23082658 0.00000000)
		(2.29608939 0.24829447 0.00000000)
		(2.31284916 0.26767030 0.00000000)
		(2.32960894 0.28880718 0.00000000)
		(2.34636872 0.31154492 0.00000000)
		(2.36312849 0.33571114 0.00000000)
		(2.37988827 0.36112268 0.00000000)
		(2.39664804 0.38758691 0.00000000)
		(2.41340782 0.41490323 0.00000000)
		(2.43016760 0.44286459 0.00000000)
		(2.44692737 0.47125904 0.00000000)
		(2.46368715 0.49987134 0.00000000)
		(2.48044693 0.52848462 0.00000000)
		(2.49720670 0.55688198 0.00000000)
		(2.51396648 0.58484818 0.00000000)
		(2.53072626 0.61217122 0.00000000)