/*--------------------------------*- C++ -*----------------------------------*\\
/*--------------------------------*- C++ -*----------------------------------*\\
| =========                 |                                                 |
| \\\\      /  F ield         | OpenFOAM: The Open Source CFD Toolbox           |
|  \\\\    /   O peration     | Version:  v2012                                 |
|   \\\\  /    A nd           | Website:  www.openfoam.com                      |
|    \\\\/     M anipulation  |                                                 |
\\*---------------------------------------------------------------------------*/
FoamFile
{
    version     2.0;
    format      ascii;
    class       dictionary;
    object      blockMeshDict;
}
// * * * * * * * * * * * * * * * * * * * * * * * * * * * * * * * * * * * * * //

scale   0.01;

xmin -1;
xmax 5;
ymin 0;
ymax 0.5;
zmin 0;
zmax 0.1;

vertices
(
    (-1.00000000 -0.21436057 0.00000000)
    (4.00000000 0.12364616 0.00000000)
    (4.00000000 0.62364616 0.00000000)
    (-1.00000000 0.28563943 0.00000000)
    (-1.00000000 -0.21436057 0.10000000)
    (4.00000000 0.12364616 0.10000000)
    (4.00000000 0.62364616 0.10000000)
    (-1.00000000 0.28563943 0.10000000)
);

blocks
(
    hex (0 1 2 3 4 5 6 7) (200 20 1) simpleGrading (1 1 1)
);

edges
(
	polyLine 0 1
	(
		(-1.00000000 -0.21436057 0.00000000)
		(-0.98000000 -0.21436057 0.00000000)
		(-0.96000000 -0.21436057 0.00000000)
		(-0.94000000 -0.21436057 0.00000000)
		(-0.92000000 -0.21436057 0.00000000)
		(-0.90000000 -0.21436057 0.00000000)
		(-0.88000000 -0.21436057 0.00000000)
		(-0.86000000 -0.21436057 0.00000000)
		(-0.84000000 -0.21436057 0.00000000)
		(-0.82000000 -0.21436057 0.00000000)
		(-0.80000000 -0.21436057 0.00000000)
		(-0.78000000 -0.21436057 0.00000000)
		(-0.76000000 -0.21436057 0.00000000)
		(-0.74000000 -0.21436057 0.00000000)
		(-0.72000000 -0.21436057 0.00000000)
		(-0.70000000 -0.21436057 0.00000000)
		(-0.68000000 -0.21436057 0.00000000)
		(-0.66000000 -0.21436057 0.00000000)
		(-0.64000000 -0.21436057 0.00000000)
		(-0.62000000 -0.21436057 0.00000000)
		(-0.60000000 -0.21436057 0.00000000)
		(-0.58000000 -0.21436057 0.00000000)
		(-0.56000000 -0.21436057 0.00000000)
		(-0.54000000 -0.21436057 0.00000000)
		(-0.52000000 -0.21436057 0.00000000)
		(-0.50000000 -0.21436057 0.00000000)
		(-0.48000000 -0.21436057 0.00000000)
		(-0.46000000 -0.21436057 0.00000000)
		(-0.44000000 -0.21436057 0.00000000)
		(-0.42000000 -0.21436057 0.00000000)
		(-0.40000000 -0.21436057 0.00000000)
		(-0.38000000 -0.21436057 0.00000000)
		(-0.36000000 -0.21436057 0.00000000)
		(-0.34000000 -0.21436057 0.00000000)
		(-0.32000000 -0.21436057 0.00000000)
		(-0.30000000 -0.21436057 0.00000000)
		(-0.28000000 -0.21436057 0.00000000)
		(-0.26000000 -0.21436057 0.00000000)
		(-0.24000000 -0.21436057 0.00000000)
		(-0.22000000 -0.21436057 0.00000000)
		(-0.20000000 -0.21436057 0.00000000)
		(-0.18000000 -0.21436057 0.00000000)
		(-0.16000000 -0.21436057 0.00000000)
		(-0.14000000 -0.21436057 0.00000000)
		(-0.12000000 -0.21436057 0.00000000)
		(-0.10000000 -0.21436057 0.00000000)
		(-0.08162011 -0.21392597 0.00000000)
		(-0.06324022 -0.21262219 0.00000000)
		(-0.04486034 -0.21044920 0.00000000)
		(-0.02648045 -0.20740703 0.00000000)
		(-0.00810056 -0.20349567 0.00000000)
		(0.01027933 -0.19871511 0.00000000)
		(0.02865922 -0.19306536 0.00000000)
		(0.04703911 -0.18654642 0.00000000)
		(0.06541899 -0.17915828 0.00000000)
		(0.08379888 -0.17090096 0.00000000)
		(0.10055866 -0.16051287 0.00000000)
		(0.11731844 -0.14963018 0.00000000)
		(0.13407821 -0.13828641 0.00000000)
		(0.15083799 -0.12651651 0.00000000)
		(0.16759777 -0.11435677 0.00000000)
		(0.18435754 -0.10184464 0.00000000)
		(0.20111732 -0.08901868 0.00000000)
		(0.21787709 -0.07591841 0.00000000)
		(0.23463687 -0.06258421 0.00000000)
		(0.25139665 -0.04905716 0.00000000)
		(0.26815642 -0.03537894 0.00000000)
		(0.28491620 -0.02159170 0.00000000)
		(0.30167598 -0.00773793 0.00000000)
		(0.31843575 0.00613969 0.00000000)
		(0.33519553 0.01999838 0.00000000)
		(0.35195531 0.03379545 0.00000000)
		(0.36871508 0.04748839 0.00000000)
		(0.38547486 0.06103499 0.00000000)
		(0.40223464 0.07439351 0.00000000)
		(0.41899441 0.08752280 0.00000000)
		(0.43575419 0.10038239 0.00000000)
		(0.45251397 0.11293265 0.00000000)
		(0.46927374 0.12513493 0.00000000)
		(0.48603352 0.13695160 0.00000000)
		(0.50279330 0.14834627 0.00000000)
		(0.51955307 0.15928381 0.00000000)
		(0.53631285 0.16973053 0.00000000)
		(0.55307263 0.17965424 0.00000000)
		(0.56983240 0.18902435 0.00000000)
		(0.58659218 0.19781200 0.00000000)
		(0.60335196 0.20599010 0.00000000)
		(0.62011173 0.21353345 0.00000000)
		(0.63687151 0.22041881 0.00000000)
		(0.65363128 0.22662496 0.00000000)
		(0.67039106 0.23213278 0.00000000)
		(0.68715084 0.23692530 0.00000000)
		(0.70391061 0.24098775 0.00000000)
		(0.72067039 0.24430760 0.00000000)
		(0.73743017 0.24687464 0.00000000)
		(0.75418994 0.24868094 0.00000000)
		(0.77094972 0.24972095 0.00000000)
		(0.78770950 0.24999146 0.00000000)
		(0.80446927 0.24949163 0.00000000)
		(0.82122905 0.24822301 0.00000000)
		(0.83798883 0.24618951 0.00000000)
		(0.85474860 0.24339739 0.00000000)
		(0.87150838 0.23985525 0.00000000)
		(0.88826816 0.23557401 0.00000000)
		(0.90502793 0.23056686 0.00000000)
		(0.92178771 0.22484923 0.00000000)
		(0.93854749 0.21843875 0.00000000)
		(0.95530726 0.21135516 0.00000000)
		(0.97206704 0.20362029 0.00000000)
		(0.98882682 0.19525797 0.00000000)
		(1.00558659 0.18629398 0.00000000)
		(1.02234637 0.17675593 0.00000000)
		(1.03910615 0.16667322 0.00000000)
		(1.05586592 0.15607692 0.00000000)
		(1.07262570 0.14499967 0.00000000)
		(1.08938547 0.13347562 0.00000000)
		(1.10614525 0.12154027 0.00000000)
		(1.12290503 0.10923040 0.00000000)
		(1.13966480 0.09658394 0.00000000)
		(1.15642458 0.08363987 0.00000000)
		(1.17318436 0.07043806 0.00000000)
		(1.18994413 0.05701920 0.00000000)
		(1.20670391 0.04342464 0.00000000)
		(1.22346369 0.02969627 0.00000000)
		(1.24022346 0.01587640 0.00000000)
		(1.25698324 0.00200760 0.00000000)
		(1.27374302 -0.01186739 0.00000000)
		(1.29050279 -0.02570580 0.00000000)
		(1.30726257 -0.03946501 0.00000000)
		(1.32402235 -0.05310261 0.00000000)
		(1.34078212 -0.06657657 0.00000000)
		(1.35754190 -0.07984538 0.00000000)
		(1.37430168 -0.09286816 0.00000000)
		(1.39106145 -0.10560476 0.00000000)
		(1.40782123 -0.11801595 0.00000000)
		(1.42458101 -0.13006348 0.00000000)
		(1.44134078 -0.14171023 0.00000000)
		(1.45810056 -0.15292031 0.00000000)
		(1.47486034 -0.16365917 0.00000000)
		(1.49162011 -0.17389372 0.00000000)
		(1.50837989 -0.18359243 0.00000000)
		(1.52513966 -0.19272541 0.00000000)
		(1.54189944 -0.20126452 0.00000000)
		(1.55865922 -0.20918345 0.00000000)
		(1.57541899 -0.21645778 0.00000000)
		(1.59217877 -0.22306512 0.00000000)
		(1.60893855 -0.22898509 0.00000000)
		(1.62569832 -0.23419946 0.00000000)
		(1.64245810 -0.23869215 0.00000000)
		(1.65921788 -0.24244933 0.00000000)
		(1.67597765 -0.24545942 0.00000000)
		(1.69273743 -0.24771313 0.00000000)
		(1.70949721 -0.24920354 0.00000000)
		(1.72625698 -0.24992603 0.00000000)
		(1.74301676 -0.24987840 0.00000000)
		(1.75977654 -0.24906077 0.00000000)
		(1.77653631 -0.24747568 0.00000000)
		(1.79329609 -0.24512801 0.00000000)
		(1.81005587 -0.24202499 0.00000000)
		(1.82681564 -0.23817619 0.00000000)
		(1.84357542 -0.23359346 0.00000000)
		(1.86033520 -0.22829092 0.00000000)
		(1.87709497 -0.22228492 0.00000000)
		(1.89385475 -0.21559396 0.00000000)
		(1.91061453 -0.20823866 0.00000000)
		(1.92737430 -0.20024168 0.00000000)
		(1.94413408 -0.19162767 0.00000000)
		(1.96089385 -0.18242317 0.00000000)
		(1.97765363 -0.17265655 0.00000000)
		(1.99441341 -0.16235789 0.00000000)
		(2.01117318 -0.15155894 0.00000000)
		(2.02793296 -0.14029296 0.00000000)
		(2.04469274 -0.12859468 0.00000000)
		(2.06145251 -0.11650015 0.00000000)
		(2.07821229 -0.10404662 0.00000000)
		(2.09497207 -0.09127249 0.00000000)
		(2.11173184 -0.07821710 0.00000000)
		(2.12849162 -0.06492069 0.00000000)
		(2.14525140 -0.05142423 0.00000000)
		(2.16201117 -0.03776931 0.00000000)
		(2.17877095 -0.02399800 0.00000000)
		(2.19553073 -0.01015275 0.00000000)
		(2.21229050 0.00372379 0.00000000)
		(2.22905028 0.01758885 0.00000000)
		(2.24581006 0.03139972 0.00000000)
		(2.26256983 0.04511382 0.00000000)
		(2.27932961 0.05868892 0.00000000)
		(2.29608939 0.07208316 0.00000000)
		(2.31284916 0.08525529 0.00000000)
		(2.32960894 0.09816470 0.00000000)
		(2.34636872 0.11077163 0.00000000)
		(2.36312849 0.12303722 0.00000000)
		(2.37988827 0.13492368 0.00000000)
		(2.39664804 0.14639438 0.00000000)
		(2.41340782 0.15741397 0.00000000)
		(2.43016760 0.16794851 0.00000000)
		(2.44692737 0.17796551 0.00000000)
		(2.46368715 0.18743413 0.00000000)
		(2.48044693 0.19632518 0.00000000)
		(2.49720670 0.20461126 0.00000000)
		(2.51396648 0.21226685 0.00000000)
		(2.53072626 0.21926835 0.00000000)
		(2.54748603 0.22559418 0.00000000)
		(2.56424581 0.23122486 0.00000000)
		(2.58100559 0.23614304 0.00000000)
		(2.59776536 0.24033355 0.00000000)
		(2.61452514 0.24378349 0.00000000)
		(2.63128492 0.24648222 0.00000000)
		(2.64804469 0.24842144 0.00000000)
		(2.66480447 0.24959515 0.00000000)
		(2.68156425 0.24999975 0.00000000)
		(2.69832402 0.24963400 0.00000000)
		(2.71508380 0.24849901 0.00000000)
		(2.73184358 0.24659828 0.00000000)
		(2.74860335 0.24393768 0.00000000)
		(2.76536313 0.24052540 0.00000000)
		(2.78212291 0.23637195 0.00000000)
		(2.79888268 0.23149013 0.00000000)
		(2.81564246 0.22589499 0.00000000)
		(2.83240223 0.21960377 0.00000000)
		(2.84916201 0.21263585 0.00000000)
		(2.86592179 0.20501271 0.00000000)
		(2.88268156 0.19675783 0.00000000)
		(2.89944134 0.18789666 0.00000000)
		(2.91620112 0.17845649 0.00000000)
		(2.93296089 0.16846641 0.00000000)
		(2.95166480 0.15995057 0.00000000)
		(2.97036872 0.15233112 0.00000000)
		(2.98907263 0.14560808 0.00000000)
		(3.00777654 0.13978145 0.00000000)
		(3.02648045 0.13485122 0.00000000)
		(3.04518436 0.13081740 0.00000000)
		(3.06388827 0.12767998 0.00000000)
		(3.08259218 0.12543897 0.00000000)
		(3.10129609 0.12409436 0.00000000)
		(3.12000000 0.12364616 0.00000000)
		(3.14000000 0.12364616 0.00000000)
		(3.16000000 0.12364616 0.00000000)
		(3.18000000 0.12364616 0.00000000)
		(3.20000000 0.12364616 0.00000000)
		(3.22000000 0.12364616 0.00000000)
		(3.24000000 0.12364616 0.00000000)
		(3.26000000 0.12364616 0.00000000)
		(3.28000000 0.12364616 0.00000000)
		(3.30000000 0.12364616 0.00000000)
		(3.32000000 0.12364616 0.00000000)
		(3.34000000 0.12364616 0.00000000)
		(3.36000000 0.12364616 0.00000000)
		(3.38000000 0.12364616 0.00000000)
		(3.40000000 0.12364616 0.00000000)
		(3.42000000 0.12364616 0.00000000)
		(3.44000000 0.12364616 0.00000000)
		(3.46000000 0.12364616 0.00000000)
		(3.48000000 0.12364616 0.00000000)
		(3.50000000 0.12364616 0.00000000)
		(3.52000000 0.12364616 0.00000000)
		(3.54000000 0.12364616 0.00000000)
		(3.56000000 0.12364616 0.00000000)
		(3.58000000 0.12364616 0.00000000)
		(3.60000000 0.12364616 0.00000000)
		(3.62000000 0.12364616 0.00000000)
		(3.64000000 0.12364616 0.00000000)
		(3.66000000 0.12364616 0.00000000)
		(3.68000000 0.12364616 0.00000000)
		(3.70000000 0.12364616 0.00000000)
		(3.72000000 0.12364616 0.00000000)
		(3.74000000 0.12364616 0.00000000)
		(3.76000000 0.12364616 0.00000000)
		(3.78000000 0.12364616 0.00000000)
		(3.80000000 0.12364616 0.00000000)
		(3.82000000 0.12364616 0.00000000)
		(3.84000000 0.12364616 0.00000000)
		(3.86000000 0.12364616 0.00000000)
		(3.88000000 0.12364616 0.00000000)
		(3.90000000 0.12364616 0.00000000)
		(3.92000000 0.12364616 0.00000000)
		(3.94000000 0.12364616 0.00000000)
		(3.96000000 0.12364616 0.00000000)
		(3.98000000 0.12364616 0.00000000)
		(4.00000000 0.12364616 0.00000000)
	)
	polyLine 4 5
	(
		(-1.00000000 -0.21436057 0.10000000)
		(-0.98000000 -0.21436057 0.10000000)
		(-0.96000000 -0.21436057 0.10000000)
		(-0.94000000 -0.21436057 0.10000000)
		(-0.92000000 -0.21436057 0.10000000)
		(-0.90000000 -0.21436057 0.10000000)
		(-0.88000000 -0.21436057 0.10000000)
		(-0.86000000 -0.21436057 0.10000000)
		(-0.84000000 -0.21436057 0.10000000)
		(-0.82000000 -0.21436057 0.10000000)
		(-0.80000000 -0.21436057 0.10000000)
		(-0.78000000 -0.21436057 0.10000000)
		(-0.76000000 -0.21436057 0.10000000)
		(-0.74000000 -0.21436057 0.10000000)
		(-0.72000000 -0.21436057 0.10000000)
		(-0.70000000 -0.21436057 0.10000000)
		(-0.68000000 -0.21436057 0.10000000)
		(-0.66000000 -0.21436057 0.10000000)
		(-0.64000000 -0.21436057 0.10000000)
		(-0.62000000 -0.21436057 0.10000000)
		(-0.60000000 -0.21436057 0.10000000)
		(-0.58000000 -0.21436057 0.10000000)
		(-0.56000000 -0.21436057 0.10000000)
		(-0.54000000 -0.21436057 0.10000000)
		(-0.52000000 -0.21436057 0.10000000)
		(-0.50000000 -0.21436057 0.10000000)
		(-0.48000000 -0.21436057 0.10000000)
		(-0.46000000 -0.21436057 0.10000000)
		(-0.44000000 -0.21436057 0.10000000)
		(-0.42000000 -0.21436057 0.10000000)
		(-0.40000000 -0.21436057 0.10000000)
		(-0.38000000 -0.21436057 0.10000000)
		(-0.36000000 -0.21436057 0.10000000)
		(-0.34000000 -0.21436057 0.10000000)
		(-0.32000000 -0.21436057 0.10000000)
		(-0.30000000 -0.21436057 0.10000000)
		(-0.28000000 -0.21436057 0.10000000)
		(-0.26000000 -0.21436057 0.10000000)
		(-0.24000000 -0.21436057 0.10000000)
		(-0.22000000 -0.21436057 0.10000000)
		(-0.20000000 -0.21436057 0.10000000)
		(-0.18000000 -0.21436057 0.10000000)
		(-0.16000000 -0.21436057 0.10000000)
		(-0.14000000 -0.21436057 0.10000000)
		(-0.12000000 -0.21436057 0.10000000)
		(-0.10000000 -0.21436057 0.10000000)
		(-0.08162011 -0.21392597 0.10000000)
		(-0.06324022 -0.21262219 0.10000000)
		(-0.04486034 -0.21044920 0.10000000)
		(-0.02648045 -0.20740703 0.10000000)
		(-0.00810056 -0.20349567 0.10000000)
		(0.01027933 -0.19871511 0.10000000)
		(0.02865922 -0.19306536 0.10000000)
		(0.04703911 -0.18654642 0.10000000)
		(0.06541899 -0.17915828 0.10000000)
		(0.08379888 -0.17090096 0.10000000)
		(0.10055866 -0.16051287 0.10000000)
		(0.11731844 -0.14963018 0.10000000)
		(0.13407821 -0.13828641 0.10000000)
		(0.15083799 -0.12651651 0.10000000)
		(0.16759777 -0.11435677 0.10000000)
		(0.18435754 -0.10184464 0.10000000)
		(0.20111732 -0.08901868 0.10000000)
		(0.21787709 -0.07591841 0.10000000)
		(0.23463687 -0.06258421 0.10000000)
		(0.25139665 -0.04905716 0.10000000)
		(0.26815642 -0.03537894 0.10000000)
		(0.28491620 -0.02159170 0.10000000)
		(0.30167598 -0.00773793 0.10000000)
		(0.31843575 0.00613969 0.10000000)
		(0.33519553 0.01999838 0.10000000)
		(0.35195531 0.03379545 0.10000000)
		(0.36871508 0.04748839 0.10000000)
		(0.38547486 0.06103499 0.10000000)
		(0.40223464 0.07439351 0.10000000)
		(0.41899441 0.08752280 0.10000000)
		(0.43575419 0.10038239 0.10000000)
		(0.45251397 0.11293265 0.10000000)
		(0.46927374 0.12513493 0.10000000)
		(0.48603352 0.13695160 0.10000000)
		(0.50279330 0.14834627 0.10000000)
		(0.51955307 0.15928381 0.10000000)
		(0.53631285 0.16973053 0.10000000)
		(0.55307263 0.17965424 0.10000000)
		(0.56983240 0.18902435 0.10000000)
		(0.58659218 0.19781200 0.10000000)
		(0.60335196 0.20599010 0.10000000)
		(0.62011173 0.21353345 0.10000000)
		(0.63687151 0.22041881 0.10000000)
		(0.65363128 0.22662496 0.10000000)
		(0.67039106 0.23213278 0.10000000)
		(0.68715084 0.23692530 0.10000000)
		(0.70391061 0.24098775 0.10000000)
		(0.72067039 0.24430760 0.10000000)
		(0.73743017 0.24687464 0.10000000)
		(0.75418994 0.24868094 0.10000000)
		(0.77094972 0.24972095 0.10000000)
		(0.78770950 0.24999146 0.10000000)
		(0.80446927 0.24949163 0.10000000)
		(0.82122905 0.24822301 0.10000000)
		(0.83798883 0.24618951 0.10000000)
		(0.85474860 0.24339739 0.10000000)
		(0.87150838 0.23985525 0.10000000)
		(0.88826816 0.23557401 0.10000000)
		(0.90502793 0.23056686 0.10000000)
		(0.92178771 0.22484923 0.10000000)
		(0.93854749 0.21843875 0.10000000)
		(0.95530726 0.21135516 0.10000000)
		(0.97206704 0.20362029 0.10000000)
		(0.98882682 0.19525797 0.10000000)
		(1.00558659 0.18629398 0.10000000)
		(1.02234637 0.17675593 0.10000000)
		(1.03910615 0.16667322 0.10000000)
		(1.05586592 0.15607692 0.10000000)
		(1.07262570 0.14499967 0.10000000)
		(1.08938547 0.13347562 0.10000000)
		(1.10614525 0.12154027 0.10000000)
		(1.12290503 0.10923040 0.10000000)
		(1.13966480 0.09658394 0.10000000)
		(1.15642458 0.08363987 0.10000000)
		(1.17318436 0.07043806 0.10000000)
		(1.18994413 0.05701920 0.10000000)
		(1.20670391 0.04342464 0.10000000)
		(1.22346369 0.02969627 0.10000000)
		(1.24022346 0.01587640 0.10000000)
		(1.25698324 0.00200760 0.10000000)
		(1.27374302 -0.01186739 0.10000000)
		(1.29050279 -0.02570580 0.10000000)
		(1.30726257 -0.03946501 0.10000000)
		(1.32402235 -0.05310261 0.10000000)
		(1.34078212 -0.06657657 0.10000000)
		(1.35754190 -0.07984538 0.10000000)
		(1.37430168 -0.09286816 0.10000000)
		(1.39106145 -0.10560476 0.10000000)
		(1.40782123 -0.11801595 0.10000000)
		(1.42458101 -0.13006348 0.10000000)
		(1.44134078 -0.14171023 0.10000000)
		(1.45810056 -0.15292031 0.10000000)
		(1.47486034 -0.16365917 0.10000000)
		(1.49162011 -0.17389372 0.10000000)
		(1.50837989 -0.18359243 0.10000000)
		(1.52513966 -0.19272541 0.10000000)
		(1.54189944 -0.20126452 0.10000000)
		(1.55865922 -0.20918345 0.10000000)
		(1.57541899 -0.21645778 0.10000000)
		(1.59217877 -0.22306512 0.10000000)
		(1.60893855 -0.22898509 0.10000000)
		(1.62569832 -0.23419946 0.10000000)
		(1.64245810 -0.23869215 0.10000000)
		(1.65921788 -0.24244933 0.10000000)
		(1.67597765 -0.24545942 0.10000000)
		(1.69273743 -0.24771313 0.10000000)
		(1.70949721 -0.24920354 0.10000000)
		(1.72625698 -0.24992603 0.10000000)
		(1.74301676 -0.24987840 0.10000000)
		(1.75977654 -0.24906077 0.10000000)
		(1.77653631 -0.24747568 0.10000000)
		(1.79329609 -0.24512801 0.10000000)
		(1.81005587 -0.24202499 0.10000000)
		(1.82681564 -0.23817619 0.10000000)
		(1.84357542 -0.23359346 0.10000000)
		(1.86033520 -0.22829092 0.10000000)
		(1.87709497 -0.22228492 0.10000000)
		(1.89385475 -0.21559396 0.10000000)
		(1.91061453 -0.20823866 0.10000000)
		(1.92737430 -0.20024168 0.10000000)
		(1.94413408 -0.19162767 0.10000000)
		(1.96089385 -0.18242317 0.10000000)
		(1.97765363 -0.17265655 0.10000000)
		(1.99441341 -0.16235789 0.10000000)
		(2.01117318 -0.15155894 0.10000000)
		(2.02793296 -0.14029296 0.10000000)
		(2.04469274 -0.12859468 0.10000000)
		(2.06145251 -0.11650015 0.10000000)
		(2.07821229 -0.10404662 0.10000000)
		(2.09497207 -0.09127249 0.10000000)
		(2.11173184 -0.07821710 0.10000000)
		(2.12849162 -0.06492069 0.10000000)
		(2.14525140 -0.05142423 0.10000000)
		(2.16201117 -0.03776931 0.10000000)
		(2.17877095 -0.02399800 0.10000000)
		(2.19553073 -0.01015275 0.10000000)
		(2.21229050 0.00372379 0.10000000)
		(2.22905028 0.01758885 0.10000000)
		(2.24581006 0.03139972 0.10000000)
		(2.26256983 0.04511382 0.10000000)
		(2.27932961 0.05868892 0.10000000)
		(2.29608939 0.07208316 0.10000000)
		(2.31284916 0.08525529 0.10000000)
		(2.32960894 0.09816470 0.10000000)
		(2.34636872 0.11077163 0.10000000)
		(2.36312849 0.12303722 0.10000000)
		(2.37988827 0.13492368 0.10000000)
		(2.39664804 0.14639438 0.10000000)
		(2.41340782 0.15741397 0.10000000)
		(2.43016760 0.16794851 0.10000000)
		(2.44692737 0.17796551 0.10000000)
		(2.46368715 0.18743413 0.10000000)
		(2.48044693 0.19632518 0.10000000)
		(2.49720670 0.20461126 0.10000000)
		(2.51396648 0.21226685 0.10000000)
		(2.53072626 0.21926835 0.10000000)
		(2.54748603 0.22559418 0.10000000)
		(2.56424581 0.23122486 0.10000000)
		(2.58100559 0.23614304 0.10000000)
		(2.59776536 0.24033355 0.10000000)
		(2.61452514 0.24378349 0.10000000)
		(2.63128492 0.24648222 0.10000000)
		(2.64804469 0.24842144 0.10000000)
		(2.66480447 0.24959515 0.10000000)
		(2.68156425 0.24999975 0.10000000)
		(2.69832402 0.24963400 0.10000000)
		(2.71508380 0.24849901 0.10000000)
		(2.73184358 0.24659828 0.10000000)
		(2.74860335 0.24393768 0.10000000)
		(2.76536313 0.24052540 0.10000000)
		(2.78212291 0.23637195 0.10000000)
		(2.79888268 0.23149013 0.10000000)
		(2.81564246 0.22589499 0.10000000)
		(2.83240223 0.21960377 0.10000000)
		(2.84916201 0.21263585 0.10000000)
		(2.86592179 0.20501271 0.10000000)
		(2.88268156 0.19675783 0.10000000)
		(2.89944134 0.18789666 0.10000000)
		(2.91620112 0.17845649 0.10000000)
		(2.93296089 0.16846641 0.10000000)
		(2.95166480 0.15995057 0.10000000)
		(2.97036872 0.15233112 0.10000000)
		(2.98907263 0.14560808 0.10000000)
		(3.00777654 0.13978145 0.10000000)
		(3.02648045 0.13485122 0.10000000)
		(3.04518436 0.13081740 0.10000000)
		(3.06388827 0.12767998 0.10000000)
		(3.08259218 0.12543897 0.10000000)
		(3.10129609 0.12409436 0.10000000)
		(3.12000000 0.12364616 0.10000000)
		(3.14000000 0.12364616 0.10000000)
		(3.16000000 0.12364616 0.10000000)
		(3.18000000 0.12364616 0.10000000)
		(3.20000000 0.12364616 0.10000000)
		(3.22000000 0.12364616 0.10000000)
		(3.24000000 0.12364616 0.10000000)
		(3.26000000 0.12364616 0.10000000)
		(3.28000000 0.12364616 0.10000000)
		(3.30000000 0.12364616 0.10000000)
		(3.32000000 0.12364616 0.10000000)
		(3.34000000 0.12364616 0.10000000)
		(3.36000000 0.12364616 0.10000000)
		(3.38000000 0.12364616 0.10000000)
		(3.40000000 0.12364616 0.10000000)
		(3.42000000 0.12364616 0.10000000)
		(3.44000000 0.12364616 0.10000000)
		(3.46000000 0.12364616 0.10000000)
		(3.48000000 0.12364616 0.10000000)
		(3.50000000 0.12364616 0.10000000)
		(3.52000000 0.12364616 0.10000000)
		(3.54000000 0.12364616 0.10000000)
		(3.56000000 0.12364616 0.10000000)
		(3.58000000 0.12364616 0.10000000)
		(3.60000000 0.12364616 0.10000000)
		(3.62000000 0.12364616 0.10000000)
		(3.64000000 0.12364616 0.10000000)
		(3.66000000 0.12364616 0.10000000)
		(3.68000000 0.12364616 0.10000000)
		(3.70000000 0.12364616 0.10000000)
		(3.72000000 0.12364616 0.10000000)
		(3.74000000 0.12364616 0.10000000)
		(3.76000000 0.12364616 0.10000000)
		(3.78000000 0.12364616 0.10000000)
		(3.80000000 0.12364616 0.10000000)
		(3.82000000 0.12364616 0.10000000)
		(3.84000000 0.12364616 0.10000000)
		(3.86000000 0.12364616 0.10000000)
		(3.88000000 0.12364616 0.10000000)
		(3.90000000 0.12364616 0.10000000)
		(3.92000000 0.12364616 0.10000000)
		(3.94000000 0.12364616 0.10000000)
		(3.96000000 0.12364616 0.10000000)
		(3.98000000 0.12364616 0.10000000)
		(4.00000000 0.12364616 0.10000000)
	)
	polyLine 3 2
	(
		(-1.00000000 0.28563943 0.00000000)
		(-0.98000000 0.28593301 0.00000000)
		(-0.96000000 0.28622659 0.00000000)
		(-0.94000000 0.28652017 0.00000000)
		(-0.92000000 0.28681374 0.00000000)
		(-0.90000000 0.28710732 0.00000000)
		(-0.88000000 0.28740090 0.00000000)
		(-0.86000000 0.28769448 0.00000000)
		(-0.84000000 0.28798806 0.00000000)
		(-0.82000000 0.28828164 0.00000000)
		(-0.80000000 0.28857522 0.00000000)
		(-0.78000000 0.28886879 0.00000000)
		(-0.76000000 0.28916237 0.00000000)
		(-0.74000000 0.28945595 0.00000000)
		(-0.72000000 0.28974953 0.00000000)
		(-0.70000000 0.29004311 0.00000000)
		(-0.68000000 0.29033669 0.00000000)
		(-0.66000000 0.29063027 0.00000000)
		(-0.64000000 0.29092384 0.00000000)
		(-0.62000000 0.29121742 0.00000000)
		(-0.60000000 0.29151100 0.00000000)
		(-0.58000000 0.29180458 0.00000000)
		(-0.56000000 0.29209816 0.00000000)
		(-0.54000000 0.29239174 0.00000000)
		(-0.52000000 0.29268532 0.00000000)
		(-0.50000000 0.29297890 0.00000000)
		(-0.48000000 0.29327247 0.00000000)
		(-0.46000000 0.29356605 0.00000000)
		(-0.44000000 0.29385963 0.00000000)
		(-0.42000000 0.29415321 0.00000000)
		(-0.40000000 0.29444679 0.00000000)
		(-0.38000000 0.29474037 0.00000000)
		(-0.36000000 0.29503395 0.00000000)
		(-0.34000000 0.29532752 0.00000000)
		(-0.32000000 0.29562110 0.00000000)
		(-0.30000000 0.29591468 0.00000000)
		(-0.28000000 0.29620826 0.00000000)
		(-0.26000000 0.29650184 0.00000000)
		(-0.24000000 0.29679542 0.00000000)
		(-0.22000000 0.29708900 0.00000000)
		(-0.20000000 0.29738257 0.00000000)
		(-0.18000000 0.29767615 0.00000000)
		(-0.16000000 0.29796973 0.00000000)
		(-0.14000000 0.29826331 0.00000000)
		(-0.12000000 0.29855689 0.00000000)
		(-0.10000000 0.29885047 0.00000000)
		(-0.08162011 0.29878419 0.00000000)
		(-0.06324022 0.29965970 0.00000000)
		(-0.04486034 0.30147698 0.00000000)
		(-0.02648045 0.30423605 0.00000000)
		(-0.00810056 0.30793691 0.00000000)
		(0.01027933 0.31257954 0.00000000)
		(0.02865922 0.31816396 0.00000000)
		(0.04703911 0.32469016 0.00000000)
		(0.06541899 0.33215814 0.00000000)
		(0.08379888 0.34056790 0.00000000)
		(0.10055866 0.35025886 0.00000000)
		(0.11731844 0.36041123 0.00000000)
		(0.13407821 0.37099375 0.00000000)
		(0.15083799 0.38197378 0.00000000)
		(0.16759777 0.39331751 0.00000000)
		(0.18435754 0.40498997 0.00000000)
		(0.20111732 0.41695521 0.00000000)
		(0.21787709 0.42917634 0.00000000)
		(0.23463687 0.44161570 0.00000000)
		(0.25139665 0.45423498 0.00000000)
		(0.26815642 0.46699528 0.00000000)
		(0.28491620 0.47985728 0.00000000)
		(0.30167598 0.49278135 0.00000000)
		(0.31843575 0.50572766 0.00000000)
		(0.33519553 0.51865633 0.00000000)
		(0.35195531 0.53152750 0.00000000)
		(0.36871508 0.54430153 0.00000000)
		(0.38547486 0.55693904 0.00000000)
		(0.40223464 0.56940110 0.00000000)
		(0.41899441 0.58164930 0.00000000)
		(0.43575419 0.59364591 0.00000000)
		(0.45251397 0.60535395 0.00000000)
		(0.46927374 0.61673735 0.00000000)
		(0.48603352 0.62776103 0.00000000)
		(0.50279330 0.63839102 0.00000000)
		(0.51955307 0.64859456 0.00000000)
		(0.53631285 0.65834022 0.00000000)
		(0.55307263 0.66759797 0.00000000)
		(0.56983240 0.67633927 0.00000000)
		(0.58659218 0.68453719 0.00000000)
		(0.60335196 0.69216647 0.00000000)
		(0.62011173 0.69920360 0.00000000)
		(0.63687151 0.70562690 0.00000000)
		(0.65363128 0.71141657 0.00000000)
		(0.67039106 0.71655477 0.00000000)
		(0.68715084 0.72102567 0.00000000)
		(0.70391061 0.72481549 0.00000000)
		(0.72067039 0.72791256 0.00000000)
		(0.73743017 0.73030733 0.00000000)
		(0.75418994 0.73199241 0.00000000)
		(0.77094972 0.73296263 0.00000000)
		(0.78770950 0.73321498 0.00000000)
		(0.80446927 0.73274870 0.00000000)
		(0.82122905 0.73156522 0.00000000)
		(0.83798883 0.72966817 0.00000000)
		(0.85474860 0.72706343 0.00000000)
		(0.87150838 0.72375899 0.00000000)
		(0.88826816 0.71976506 0.00000000)
		(0.90502793 0.71509393 0.00000000)
		(0.92178771 0.70976001 0.00000000)
		(0.93854749 0.70377972 0.00000000)
		(0.95530726 0.69717149 0.00000000)
		(0.97206704 0.68995569 0.00000000)
		(0.98882682 0.68215456 0.00000000)
		(1.00558659 0.67379212 0.00000000)
		(1.02234637 0.66489416 0.00000000)
		(1.03910615 0.65548808 0.00000000)
		(1.05586592 0.64560288 0.00000000)
		(1.07262570 0.63526901 0.00000000)
		(1.08938547 0.62451831 0.00000000)
		(1.10614525 0.61338392 0.00000000)
		(1.12290503 0.60190014 0.00000000)
		(1.13966480 0.59010237 0.00000000)
		(1.15642458 0.57802695 0.00000000)
		(1.17318436 0.56571109 0.00000000)
		(1.18994413 0.55319275 0.00000000)
		(1.20670391 0.54051049 0.00000000)
		(1.22346369 0.52770341 0.00000000)
		(1.24022346 0.51481096 0.00000000)
		(1.25698324 0.50187287 0.00000000)
		(1.27374302 0.48892901 0.00000000)
		(1.29050279 0.47601927 0.00000000)
		(1.30726257 0.46318341 0.00000000)
		(1.32402235 0.45046101 0.00000000)
		(1.34078212 0.43789126 0.00000000)
		(1.35754190 0.42551290 0.00000000)
		(1.37430168 0.41336406 0.00000000)
		(1.39106145 0.40148218 0.00000000)
		(1.40782123 0.38990389 0.00000000)
		(1.42458101 0.37866484 0.00000000)
		(1.44134078 0.36779969 0.00000000)
		(1.45810056 0.35734190 0.00000000)
		(1.47486034 0.34732370 0.00000000)
		(1.49162011 0.33777597 0.00000000)
		(1.50837989 0.32872813 0.00000000)
		(1.52513966 0.32020804 0.00000000)
		(1.54189944 0.31224198 0.00000000)
		(1.55865922 0.30485448 0.00000000)
		(1.57541899 0.29806831 0.00000000)
		(1.59217877 0.29190438 0.00000000)
		(1.60893855 0.28638169 0.00000000)
		(1.62569832 0.28151725 0.00000000)
		(1.64245810 0.27732605 0.00000000)
		(1.65921788 0.27382101 0.00000000)
		(1.67597765 0.27101292 0.00000000)
		(1.69273743 0.26891045 0.00000000)
		(1.70949721 0.26752006 0.00000000)
		(1.72625698 0.26684605 0.00000000)
		(1.74301676 0.26689049 0.00000000)
		(1.75977654 0.26765325 0.00000000)
		(1.77653631 0.26913196 0.00000000)
		(1.79329609 0.27132209 0.00000000)
		(1.81005587 0.27421687 0.00000000)
		(1.82681564 0.27780739 0.00000000)
		(1.84357542 0.28208258 0.00000000)
		(1.86033520 0.28702927 0.00000000)
		(1.87709497 0.29263222 0.00000000)
		(1.89385475 0.29887416 0.00000000)
		(1.91061453 0.30573586 0.00000000)
		(1.92737430 0.31319618 0.00000000)
		(1.94413408 0.32123212 0.00000000)
		(1.96089385 0.32981892 0.00000000)
		(1.97765363 0.33893012 0.00000000)
		(1.99441341 0.34853766 0.00000000)
		(2.01117318 0.35861191 0.00000000)
		(2.02793296 0.36912185 0.00000000)
		(2.04469274 0.38003507 0.00000000)
		(2.06145251 0.39131797 0.00000000)
		(2.07821229 0.40293576 0.00000000)
		(2.09497207 0.41485265 0.00000000)
		(2.11173184 0.42703191 0.00000000)
		(2.12849162 0.43943602 0.00000000)
		(2.14525140 0.45202676 0.00000000)
		(2.16201117 0.46476532 0.00000000)
		(2.17877095 0.47761246 0.00000000)
		(2.19553073 0.49052858 0.00000000)
		(2.21229050 0.50347389 0.00000000)
		(2.22905028 0.51640850 0.00000000)
		(2.24581006 0.52929254 0.00000000)
		(2.26256983 0.54208632 0.00000000)
		(2.27932961 0.55475041 0.00000000)
		(2.29608939 0.56724579 0.00000000)
		(2.31284916 0.57953396 0.00000000)
		(2.32960894 0.59157705 0.00000000)
		(2.34636872 0.60333795 0.00000000)
		(2.36312849 0.61478042 0.00000000)
		(2.37988827 0.62586920 0.00000000)
		(2.39664804 0.63657012 0.00000000)
		(2.41340782 0.64685021 0.00000000)
		(2.43016760 0.65667778 0.00000000)
		(2.44692737 0.66602257 0.00000000)
		(2.46368715 0.67485576 0.00000000)
		(2.48044693 0.68315015 0.00000000)
		(2.49720670 0.69088017 0.00000000)
		(2.51396648 0.69802200 0.00000000)
		(2.53072626 0.70455364 0.00000000)