/*--------------------------------*- C++ -*----------------------------------*\
| =========                 |                                                 |
| \\      /  F ield         | OpenFOAM: The Open Source CFD Toolbox           |
|  \\    /   O peration     | Version:  2506                                  |
|   \\  /    A nd           | Website:  www.openfoam.com                      |
|    \\/     M anipulation  |                                                 |
\*---------------------------------------------------------------------------*/
FoamFile
{
    version     2.0;
    format      ascii;
    arch        "LSB;label=32;scalar=64";
    class       polyBoundaryMesh;
    location    "constant/polyMesh";
    object      boundary;
}
// * * * * * * * * * * * * * * * * * * * * * * * * * * * * * * * * * * * * * //

4
(
    inlet
    {
        type            patch;
        nFaces          200;
        startFace       7780;
    }
    outlet
    {
        type            patch;
        nFaces          200;
        startFace       7980;
    }
    walls
    {
        type            wall;
        inGroups        1(wall);
        nFaces          40;
        startFace       8180;
    }
    frontAndBack
    {
        type            empty;
        inGroups        1(empty);
        nFaces          8000;
        startFace       8220;
    }
)

// ************************************************************************* //
