/*--------------------------------*- C++ -*----------------------------------*\\
/*--------------------------------*- C++ -*----------------------------------*\\
| =========                 |                                                 |
| \\\\      /  F ield         | OpenFOAM: The Open Source CFD Toolbox           |
|  \\\\    /   O peration     | Version:  v2012                                 |
|   \\\\  /    A nd           | Website:  www.openfoam.com                      |
|    \\\\/     M anipulation  |                                                 |
\\*---------------------------------------------------------------------------*/
FoamFile
{
    version     2.0;
    format      ascii;
    class       dictionary;
    object      blockMeshDict;
}
// * * * * * * * * * * * * * * * * * * * * * * * * * * * * * * * * * * * * * //

scale   0.01;

xmin -1;
xmax 5;
ymin 0;
ymax 0.5;
zmin 0;
zmax 0.1;

vertices
(
    (-1.00000000 0.00300090 0.00000000)
    (4.00000000 0.05035513 0.00000000)
    (4.00000000 0.55035513 0.00000000)
    (-1.00000000 0.50300090 0.00000000)
    (-1.00000000 0.00300090 0.10000000)
    (4.00000000 0.05035513 0.10000000)
    (4.00000000 0.55035513 0.10000000)
    (-1.00000000 0.50300090 0.10000000)
);

blocks
(
    hex (0 1 2 3 4 5 6 7) (200 20 1) simpleGrading (1 1 1)
);

edges
(
	polyLine 0 1
	(
		(-1.00000000 0.00300090 0.00000000)
		(-0.98000000 0.00300090 0.00000000)
		(-0.96000000 0.00300090 0.00000000)
		(-0.94000000 0.00300090 0.00000000)
		(-0.92000000 0.00300090 0.00000000)
		(-0.90000000 0.00300090 0.00000000)
		(-0.88000000 0.00300090 0.00000000)
		(-0.86000000 0.00300090 0.00000000)
		(-0.84000000 0.00300090 0.00000000)
		(-0.82000000 0.00300090 0.00000000)
		(-0.80000000 0.00300090 0.00000000)
		(-0.78000000 0.00300090 0.00000000)
		(-0.76000000 0.00300090 0.00000000)
		(-0.74000000 0.00300090 0.00000000)
		(-0.72000000 0.00300090 0.00000000)
		(-0.70000000 0.00300090 0.00000000)
		(-0.68000000 0.00300090 0.00000000)
		(-0.66000000 0.00300090 0.00000000)
		(-0.64000000 0.00300090 0.00000000)
		(-0.62000000 0.00300090 0.00000000)
		(-0.60000000 0.00300090 0.00000000)
		(-0.58000000 0.00300090 0.00000000)
		(-0.56000000 0.00300090 0.00000000)
		(-0.54000000 0.00300090 0.00000000)
		(-0.52000000 0.00300090 0.00000000)
		(-0.50000000 0.00300090 0.00000000)
		(-0.48000000 0.00300090 0.00000000)
		(-0.46000000 0.00300090 0.00000000)
		(-0.44000000 0.00300090 0.00000000)
		(-0.42000000 0.00300090 0.00000000)
		(-0.40000000 0.00300090 0.00000000)
		(-0.38000000 0.00300090 0.00000000)
		(-0.36000000 0.00300090 0.00000000)
		(-0.34000000 0.00300090 0.00000000)
		(-0.32000000 0.00300090 0.00000000)
		(-0.30000000 0.00300090 0.00000000)
		(-0.28000000 0.00300090 0.00000000)
		(-0.26000000 0.00300090 0.00000000)
		(-0.24000000 0.00300090 0.00000000)
		(-0.22000000 0.00300090 0.00000000)
		(-0.20000000 0.00300090 0.00000000)
		(-0.18000000 0.00300090 0.00000000)
		(-0.16000000 0.00300090 0.00000000)
		(-0.14000000 0.00300090 0.00000000)
		(-0.12000000 0.00300090 0.00000000)
		(-0.10000000 0.00300090 0.00000000)
		(-0.08162011 0.00233482 0.00000000)
		(-0.06324022 0.00033657 0.00000000)
		(-0.04486034 -0.00299386 0.00000000)
		(-0.02648045 -0.00765645 0.00000000)
		(-0.00810056 -0.01365121 0.00000000)
		(0.01027933 -0.02097813 0.00000000)
		(0.02865922 -0.02963723 0.00000000)
		(0.04703911 -0.03962849 0.00000000)
		(0.06541899 -0.05095193 0.00000000)
		(0.08379888 -0.06360753 0.00000000)
		(0.10055866 -0.07652909 0.00000000)
		(0.11731844 -0.08922875 0.00000000)
		(0.13407821 -0.10166971 0.00000000)
		(0.15083799 -0.11381589 0.00000000)
		(0.16759777 -0.12563207 0.00000000)
		(0.18435754 -0.13708400 0.00000000)
		(0.20111732 -0.14813847 0.00000000)
		(0.21787709 -0.15876343 0.00000000)
		(0.23463687 -0.16892807 0.00000000)
		(0.25139665 -0.17860292 0.00000000)
		(0.26815642 -0.18775993 0.00000000)
		(0.28491620 -0.19637256 0.00000000)
		(0.30167598 -0.20441582 0.00000000)
		(0.31843575 -0.21186641 0.00000000)
		(0.33519553 -0.21870271 0.00000000)
		(0.35195531 -0.22490491 0.00000000)
		(0.36871508 -0.23045502 0.00000000)
		(0.38547486 -0.23533696 0.00000000)
		(0.40223464 -0.23953656 0.00000000)
		(0.41899441 -0.24304165 0.00000000)
		(0.43575419 -0.24584207 0.00000000)
		(0.45251397 -0.24792970 0.00000000)
		(0.46927374 -0.24929849 0.00000000)
		(0.48603352 -0.24994446 0.00000000)
		(0.50279330 -0.24986575 0.00000000)
		(0.51955307 -0.24906258 0.00000000)
		(0.53631285 -0.24753728 0.00000000)
		(0.55307263 -0.24529428 0.00000000)
		(0.56983240 -0.24234007 0.00000000)
		(0.58659218 -0.23868322 0.00000000)
		(0.60335196 -0.23433435 0.00000000)
		(0.62011173 -0.22930604 0.00000000)
		(0.63687151 -0.22361289 0.00000000)
		(0.65363128 -0.21727139 0.00000000)
		(0.67039106 -0.21029995 0.00000000)
		(0.68715084 -0.20271876 0.00000000)
		(0.70391061 -0.19454981 0.00000000)
		(0.72067039 -0.18581679 0.00000000)
		(0.73743017 -0.17654502 0.00000000)
		(0.75418994 -0.16676137 0.00000000)
		(0.77094972 -0.15649421 0.00000000)
		(0.78770950 -0.14577332 0.00000000)
		(0.80446927 -0.13462978 0.00000000)
		(0.82122905 -0.12309589 0.00000000)
		(0.83798883 -0.11120510 0.00000000)
		(0.85474860 -0.09899188 0.00000000)
		(0.87150838 -0.08649165 0.00000000)
		(0.88826816 -0.07374064 0.00000000)
		(0.90502793 -0.06077583 0.00000000)
		(0.92178771 -0.04763481 0.00000000)
		(0.93854749 -0.03435568 0.00000000)
		(0.95530726 -0.02097693 0.00000000)
		(0.97206704 -0.00753737 0.00000000)
		(0.98882682 0.00592405 0.00000000)
		(1.00558659 0.01936829 0.00000000)
		(1.02234637 0.03275637 0.00000000)
		(1.03910615 0.04604949 0.00000000)
		(1.05586592 0.05920908 0.00000000)
		(1.07262570 0.07219701 0.00000000)
		(1.08938547 0.08497561 0.00000000)
		(1.10614525 0.09750783 0.00000000)
		(1.12290503 0.10975734 0.00000000)
		(1.13966480 0.12168862 0.00000000)
		(1.15642458 0.13326708 0.00000000)
		(1.17318436 0.14445914 0.00000000)
		(1.18994413 0.15523237 0.00000000)
		(1.20670391 0.16555551 0.00000000)
		(1.22346369 0.17539865 0.00000000)
		(1.24022346 0.18473323 0.00000000)
		(1.25698324 0.19353220 0.00000000)
		(1.27374302 0.20177005 0.00000000)
		(1.29050279 0.20942289 0.00000000)
		(1.30726257 0.21646853 0.00000000)
		(1.32402235 0.22288655 0.00000000)
		(1.34078212 0.22865833 0.00000000)
		(1.35754190 0.23376714 0.00000000)
		(1.37430168 0.23819817 0.00000000)
		(1.39106145 0.24193858 0.00000000)
		(1.40782123 0.24497751 0.00000000)
		(1.42458101 0.24730615 0.00000000)
		(1.44134078 0.24891776 0.00000000)
		(1.45810056 0.24980766 0.00000000)
		(1.47486034 0.24997327 0.00000000)
		(1.49162011 0.24941411 0.00000000)
		(1.50837989 0.24813181 0.00000000)
		(1.52513966 0.24613007 0.00000000)
		(1.54189944 0.24341471 0.00000000)
		(1.55865922 0.23999359 0.00000000)
		(1.57541899 0.23587664 0.00000000)
		(1.59217877 0.23107580 0.00000000)
		(1.60893855 0.22560497 0.00000000)
		(1.62569832 0.21948003 0.00000000)
		(1.64245810 0.21271873 0.00000000)
		(1.65921788 0.20534068 0.00000000)
		(1.67597765 0.19736727 0.00000000)
		(1.69273743 0.18882161 0.00000000)
		(1.70949721 0.17972848 0.00000000)
		(1.72625698 0.17011426 0.00000000)
		(1.74301676 0.16000680 0.00000000)
		(1.75977654 0.14943543 0.00000000)
		(1.77653631 0.13843078 0.00000000)
		(1.79329609 0.12702477 0.00000000)
		(1.81005587 0.11525046 0.00000000)
		(1.82681564 0.10314200 0.00000000)
		(1.84357542 0.09073450 0.00000000)
		(1.86033520 0.07806391 0.00000000)
		(1.87709497 0.06516699 0.00000000)
		(1.89385475 0.05208113 0.00000000)
		(1.91061453 0.03884426 0.00000000)
		(1.92737430 0.02549476 0.00000000)
		(1.94413408 0.01207135 0.00000000)
		(1.96089385 -0.00138706 0.00000000)
		(1.97765363 -0.01484145 0.00000000)
		(1.99441341 -0.02825281 0.00000000)
		(2.01117318 -0.04158225 0.00000000)
		(2.02793296 -0.05479113 0.00000000)
		(2.04469274 -0.06784115 0.00000000)
		(2.06145251 -0.08069447 0.00000000)
		(2.07821229 -0.09331383 0.00000000)
		(2.09497207 -0.10566263 0.00000000)
		(2.11173184 -0.11770508 0.00000000)
		(2.12849162 -0.12940626 0.00000000)
		(2.14525140 -0.14073223 0.00000000)
		(2.16201117 -0.15165017 0.00000000)
		(2.17877095 -0.16212842 0.00000000)
		(2.19553073 -0.17213659 0.00000000)
		(2.21229050 -0.18164568 0.00000000)
		(2.22905028 -0.19062810 0.00000000)
		(2.24581006 -0.19905782 0.00000000)
		(2.26256983 -0.20691039 0.00000000)
		(2.27932961 -0.21416305 0.00000000)
		(2.29608939 -0.22079476 0.00000000)
		(2.31284916 -0.22678631 0.00000000)
		(2.32960894 -0.23212032 0.00000000)
		(2.34636872 -0.23678132 0.00000000)
		(2.36312849 -0.24075580 0.00000000)
		(2.37988827 -0.24403224 0.00000000)
		(2.39664804 -0.24660113 0.00000000)
		(2.41340782 -0.24845503 0.00000000)
		(2.43016760 -0.24958857 0.00000000)
		(2.44692737 -0.24999845 0.00000000)
		(2.46368715 -0.24968348 0.00000000)
		(2.48044693 -0.24864459 0.00000000)
		(2.49720670 -0.24688478 0.00000000)
		(2.51396648 -0.24440916 0.00000000)
		(2.53072626 -0.24122490 0.00000000)
		(2.54748603 -0.23734124 0.00000000)
		(2.56424581 -0.23276943 0.00000000)
		(2.58100559 -0.22752274 0.00000000)
		(2.59776536 -0.22161637 0.00000000)
		(2.61452514 -0.21506744 0.00000000)
		(2.63128492 -0.20789496 0.00000000)
		(2.64804469 -0.20011970 0.00000000)
		(2.66480447 -0.19176422 0.00000000)
		(2.68156425 -0.18285275 0.00000000)
		(2.69832402 -0.17341111 0.00000000)
		(2.71508380 -0.16346668 0.00000000)
		(2.73184358 -0.15304831 0.00000000)
		(2.74860335 -0.14218618 0.00000000)
		(2.76536313 -0.13091181 0.00000000)
		(2.78212291 -0.11925787 0.00000000)
		(2.79888268 -0.10725815 0.00000000)
		(2.81564246 -0.09494746 0.00000000)
		(2.83240223 -0.08236147 0.00000000)
		(2.84916201 -0.06953668 0.00000000)
		(2.86592179 -0.05651029 0.00000000)
		(2.88268156 -0.04332004 0.00000000)
		(2.89944134 -0.03000420 0.00000000)
		(2.91620112 -0.01660136 0.00000000)
		(2.93296089 -0.00315039 0.00000000)
		(2.95166480 0.00701566 0.00000000)
		(2.97036872 0.01611160 0.00000000)
		(2.98907263 0.02413743 0.00000000)
		(3.00777654 0.03109314 0.00000000)
		(3.02648045 0.03697875 0.00000000)
		(3.04518436 0.04179425 0.00000000)
		(3.06388827 0.04553963 0.00000000)
		(3.08259218 0.04821491 0.00000000)
		(3.10129609 0.04982007 0.00000000)
		(3.12000000 0.05035513 0.00000000)
		(3.14000000 0.05035513 0.00000000)
		(3.16000000 0.05035513 0.00000000)
		(3.18000000 0.05035513 0.00000000)
		(3.20000000 0.05035513 0.00000000)
		(3.22000000 0.05035513 0.00000000)
		(3.24000000 0.05035513 0.00000000)
		(3.26000000 0.05035513 0.00000000)
		(3.28000000 0.05035513 0.00000000)
		(3.30000000 0.05035513 0.00000000)
		(3.32000000 0.05035513 0.00000000)
		(3.34000000 0.05035513 0.00000000)
		(3.36000000 0.05035513 0.00000000)
		(3.38000000 0.05035513 0.00000000)
		(3.40000000 0.05035513 0.00000000)
		(3.42000000 0.05035513 0.00000000)
		(3.44000000 0.05035513 0.00000000)
		(3.46000000 0.05035513 0.00000000)
		(3.48000000 0.05035513 0.00000000)
		(3.50000000 0.05035513 0.00000000)
		(3.52000000 0.05035513 0.00000000)
		(3.54000000 0.05035513 0.00000000)
		(3.56000000 0.05035513 0.00000000)
		(3.58000000 0.05035513 0.00000000)
		(3.60000000 0.05035513 0.00000000)
		(3.62000000 0.05035513 0.00000000)
		(3.64000000 0.05035513 0.00000000)
		(3.66000000 0.05035513 0.00000000)
		(3.68000000 0.05035513 0.00000000)
		(3.70000000 0.05035513 0.00000000)
		(3.72000000 0.05035513 0.00000000)
		(3.74000000 0.05035513 0.00000000)
		(3.76000000 0.05035513 0.00000000)
		(3.78000000 0.05035513 0.00000000)
		(3.80000000 0.05035513 0.00000000)
		(3.82000000 0.05035513 0.00000000)
		(3.84000000 0.05035513 0.00000000)
		(3.86000000 0.05035513 0.00000000)
		(3.88000000 0.05035513 0.00000000)
		(3.90000000 0.05035513 0.00000000)
		(3.92000000 0.05035513 0.00000000)
		(3.94000000 0.05035513 0.00000000)
		(3.96000000 0.05035513 0.00000000)
		(3.98000000 0.05035513 0.00000000)
		(4.00000000 0.05035513 0.00000000)
	)
	polyLine 4 5
	(
		(-1.00000000 0.00300090 0.10000000)
		(-0.98000000 0.00300090 0.10000000)
		(-0.96000000 0.00300090 0.10000000)
		(-0.94000000 0.00300090 0.10000000)
		(-0.92000000 0.00300090 0.10000000)
		(-0.90000000 0.00300090 0.10000000)
		(-0.88000000 0.00300090 0.10000000)
		(-0.86000000 0.00300090 0.10000000)
		(-0.84000000 0.00300090 0.10000000)
		(-0.82000000 0.00300090 0.10000000)
		(-0.80000000 0.00300090 0.10000000)
		(-0.78000000 0.00300090 0.10000000)
		(-0.76000000 0.00300090 0.10000000)
		(-0.74000000 0.00300090 0.10000000)
		(-0.72000000 0.00300090 0.10000000)
		(-0.70000000 0.00300090 0.10000000)
		(-0.68000000 0.00300090 0.10000000)
		(-0.66000000 0.00300090 0.10000000)
		(-0.64000000 0.00300090 0.10000000)
		(-0.62000000 0.00300090 0.10000000)
		(-0.60000000 0.00300090 0.10000000)
		(-0.58000000 0.00300090 0.10000000)
		(-0.56000000 0.00300090 0.10000000)
		(-0.54000000 0.00300090 0.10000000)
		(-0.52000000 0.00300090 0.10000000)
		(-0.50000000 0.00300090 0.10000000)
		(-0.48000000 0.00300090 0.10000000)
		(-0.46000000 0.00300090 0.10000000)
		(-0.44000000 0.00300090 0.10000000)
		(-0.42000000 0.00300090 0.10000000)
		(-0.40000000 0.00300090 0.10000000)
		(-0.38000000 0.00300090 0.10000000)
		(-0.36000000 0.00300090 0.10000000)
		(-0.34000000 0.00300090 0.10000000)
		(-0.32000000 0.00300090 0.10000000)
		(-0.30000000 0.00300090 0.10000000)
		(-0.28000000 0.00300090 0.10000000)
		(-0.26000000 0.00300090 0.10000000)
		(-0.24000000 0.00300090 0.10000000)
		(-0.22000000 0.00300090 0.10000000)
		(-0.20000000 0.00300090 0.10000000)
		(-0.18000000 0.00300090 0.10000000)
		(-0.16000000 0.00300090 0.10000000)
		(-0.14000000 0.00300090 0.10000000)
		(-0.12000000 0.00300090 0.10000000)
		(-0.10000000 0.00300090 0.10000000)
		(-0.08162011 0.00233482 0.10000000)
		(-0.06324022 0.00033657 0.10000000)
		(-0.04486034 -0.00299386 0.10000000)
		(-0.02648045 -0.00765645 0.10000000)
		(-0.00810056 -0.01365121 0.10000000)
		(0.01027933 -0.02097813 0.10000000)
		(0.02865922 -0.02963723 0.10000000)
		(0.04703911 -0.03962849 0.10000000)
		(0.06541899 -0.05095193 0.10000000)
		(0.08379888 -0.06360753 0.10000000)
		(0.10055866 -0.07652909 0.10000000)
		(0.11731844 -0.08922875 0.10000000)
		(0.13407821 -0.10166971 0.10000000)
		(0.15083799 -0.11381589 0.10000000)
		(0.16759777 -0.12563207 0.10000000)
		(0.18435754 -0.13708400 0.10000000)
		(0.20111732 -0.14813847 0.10000000)
		(0.21787709 -0.15876343 0.10000000)
		(0.23463687 -0.16892807 0.10000000)
		(0.25139665 -0.17860292 0.10000000)
		(0.26815642 -0.18775993 0.10000000)
		(0.28491620 -0.19637256 0.10000000)
		(0.30167598 -0.20441582 0.10000000)
		(0.31843575 -0.21186641 0.10000000)
		(0.33519553 -0.21870271 0.10000000)
		(0.35195531 -0.22490491 0.10000000)
		(0.36871508 -0.23045502 0.10000000)
		(0.38547486 -0.23533696 0.10000000)
		(0.40223464 -0.23953656 0.10000000)
		(0.41899441 -0.24304165 0.10000000)
		(0.43575419 -0.24584207 0.10000000)
		(0.45251397 -0.24792970 0.10000000)
		(0.46927374 -0.24929849 0.10000000)
		(0.48603352 -0.24994446 0.10000000)
		(0.50279330 -0.24986575 0.10000000)
		(0.51955307 -0.24906258 0.10000000)
		(0.53631285 -0.24753728 0.10000000)
		(0.55307263 -0.24529428 0.10000000)
		(0.56983240 -0.24234007 0.10000000)
		(0.58659218 -0.23868322 0.10000000)
		(0.60335196 -0.23433435 0.10000000)
		(0.62011173 -0.22930604 0.10000000)
		(0.63687151 -0.22361289 0.10000000)
		(0.65363128 -0.21727139 0.10000000)
		(0.67039106 -0.21029995 0.10000000)
		(0.68715084 -0.20271876 0.10000000)
		(0.70391061 -0.19454981 0.10000000)
		(0.72067039 -0.18581679 0.10000000)
		(0.73743017 -0.17654502 0.10000000)
		(0.75418994 -0.16676137 0.10000000)
		(0.77094972 -0.15649421 0.10000000)
		(0.78770950 -0.14577332 0.10000000)
		(0.80446927 -0.13462978 0.10000000)
		(0.82122905 -0.12309589 0.10000000)
		(0.83798883 -0.11120510 0.10000000)
		(0.85474860 -0.09899188 0.10000000)
		(0.87150838 -0.08649165 0.10000000)
		(0.88826816 -0.07374064 0.10000000)
		(0.90502793 -0.06077583 0.10000000)
		(0.92178771 -0.04763481 0.10000000)
		(0.93854749 -0.03435568 0.10000000)
		(0.95530726 -0.02097693 0.10000000)
		(0.97206704 -0.00753737 0.10000000)
		(0.98882682 0.00592405 0.10000000)
		(1.00558659 0.01936829 0.10000000)
		(1.02234637 0.03275637 0.10000000)
		(1.03910615 0.04604949 0.10000000)
		(1.05586592 0.05920908 0.10000000)
		(1.07262570 0.07219701 0.10000000)
		(1.08938547 0.08497561 0.10000000)
		(1.10614525 0.09750783 0.10000000)
		(1.12290503 0.10975734 0.10000000)
		(1.13966480 0.12168862 0.10000000)
		(1.15642458 0.13326708 0.10000000)
		(1.17318436 0.14445914 0.10000000)
		(1.18994413 0.15523237 0.10000000)
		(1.20670391 0.16555551 0.10000000)
		(1.22346369 0.17539865 0.10000000)
		(1.24022346 0.18473323 0.10000000)
		(1.25698324 0.19353220 0.10000000)
		(1.27374302 0.20177005 0.10000000)
		(1.29050279 0.20942289 0.10000000)
		(1.30726257 0.21646853 0.10000000)
		(1.32402235 0.22288655 0.10000000)
		(1.34078212 0.22865833 0.10000000)
		(1.35754190 0.23376714 0.10000000)
		(1.37430168 0.23819817 0.10000000)
		(1.39106145 0.24193858 0.10000000)
		(1.40782123 0.24497751 0.10000000)
		(1.42458101 0.24730615 0.10000000)
		(1.44134078 0.24891776 0.10000000)
		(1.45810056 0.24980766 0.10000000)
		(1.47486034 0.24997327 0.10000000)
		(1.49162011 0.24941411 0.10000000)
		(1.50837989 0.24813181 0.10000000)
		(1.52513966 0.24613007 0.10000000)
		(1.54189944 0.24341471 0.10000000)
		(1.55865922 0.23999359 0.10000000)
		(1.57541899 0.23587664 0.10000000)
		(1.59217877 0.23107580 0.10000000)
		(1.60893855 0.22560497 0.10000000)
		(1.62569832 0.21948003 0.10000000)
		(1.64245810 0.21271873 0.10000000)
		(1.65921788 0.20534068 0.10000000)
		(1.67597765 0.19736727 0.10000000)
		(1.69273743 0.18882161 0.10000000)
		(1.70949721 0.17972848 0.10000000)
		(1.72625698 0.17011426 0.10000000)
		(1.74301676 0.16000680 0.10000000)
		(1.75977654 0.14943543 0.10000000)
		(1.77653631 0.13843078 0.10000000)
		(1.79329609 0.12702477 0.10000000)
		(1.81005587 0.11525046 0.10000000)
		(1.82681564 0.10314200 0.10000000)
		(1.84357542 0.09073450 0.10000000)
		(1.86033520 0.07806391 0.10000000)
		(1.87709497 0.06516699 0.10000000)
		(1.89385475 0.05208113 0.10000000)
		(1.91061453 0.03884426 0.10000000)
		(1.92737430 0.02549476 0.10000000)
		(1.94413408 0.01207135 0.10000000)
		(1.96089385 -0.00138706 0.10000000)
		(1.97765363 -0.01484145 0.10000000)
		(1.99441341 -0.02825281 0.10000000)
		(2.01117318 -0.04158225 0.10000000)
		(2.02793296 -0.05479113 0.10000000)
		(2.04469274 -0.06784115 0.10000000)
		(2.06145251 -0.08069447 0.10000000)
		(2.07821229 -0.09331383 0.10000000)
		(2.09497207 -0.10566263 0.10000000)
		(2.11173184 -0.11770508 0.10000000)
		(2.12849162 -0.12940626 0.10000000)
		(2.14525140 -0.14073223 0.10000000)
		(2.16201117 -0.15165017 0.10000000)
		(2.17877095 -0.16212842 0.10000000)
		(2.19553073 -0.17213659 0.10000000)
		(2.21229050 -0.18164568 0.10000000)
		(2.22905028 -0.19062810 0.10000000)
		(2.24581006 -0.19905782 0.10000000)
		(2.26256983 -0.20691039 0.10000000)
		(2.27932961 -0.21416305 0.10000000)
		(2.29608939 -0.22079476 0.10000000)
		(2.31284916 -0.22678631 0.10000000)
		(2.32960894 -0.23212032 0.10000000)
		(2.34636872 -0.23678132 0.10000000)
		(2.36312849 -0.24075580 0.10000000)
		(2.37988827 -0.24403224 0.10000000)
		(2.39664804 -0.24660113 0.10000000)
		(2.41340782 -0.24845503 0.10000000)
		(2.43016760 -0.24958857 0.10000000)
		(2.44692737 -0.24999845 0.10000000)
		(2.46368715 -0.24968348 0.10000000)
		(2.48044693 -0.24864459 0.10000000)
		(2.49720670 -0.24688478 0.10000000)
		(2.51396648 -0.24440916 0.10000000)
		(2.53072626 -0.24122490 0.10000000)
		(2.54748603 -0.23734124 0.10000000)
		(2.56424581 -0.23276943 0.10000000)
		(2.58100559 -0.22752274 0.10000000)
		(2.59776536 -0.22161637 0.10000000)
		(2.61452514 -0.21506744 0.10000000)
		(2.63128492 -0.20789496 0.10000000)
		(2.64804469 -0.20011970 0.10000000)
		(2.66480447 -0.19176422 0.10000000)
		(2.68156425 -0.18285275 0.10000000)
		(2.69832402 -0.17341111 0.10000000)
		(2.71508380 -0.16346668 0.10000000)
		(2.73184358 -0.15304831 0.10000000)
		(2.74860335 -0.14218618 0.10000000)
		(2.76536313 -0.13091181 0.10000000)
		(2.78212291 -0.11925787 0.10000000)
		(2.79888268 -0.10725815 0.10000000)
		(2.81564246 -0.09494746 0.10000000)
		(2.83240223 -0.08236147 0.10000000)
		(2.84916201 -0.06953668 0.10000000)
		(2.86592179 -0.05651029 0.10000000)
		(2.88268156 -0.04332004 0.10000000)
		(2.89944134 -0.03000420 0.10000000)
		(2.91620112 -0.01660136 0.10000000)
		(2.93296089 -0.00315039 0.10000000)
		(2.95166480 0.00701566 0.10000000)
		(2.97036872 0.01611160 0.10000000)
		(2.98907263 0.02413743 0.10000000)
		(3.00777654 0.03109314 0.10000000)
		(3.02648045 0.03697875 0.10000000)
		(3.04518436 0.04179425 0.10000000)
		(3.06388827 0.04553963 0.10000000)
		(3.08259218 0.04821491 0.10000000)
		(3.10129609 0.04982007 0.10000000)
		(3.12000000 0.05035513 0.10000000)
		(3.14000000 0.05035513 0.10000000)
		(3.16000000 0.05035513 0.10000000)
		(3.18000000 0.05035513 0.10000000)
		(3.20000000 0.05035513 0.10000000)
		(3.22000000 0.05035513 0.10000000)
		(3.24000000 0.05035513 0.10000000)
		(3.26000000 0.05035513 0.10000000)
		(3.28000000 0.05035513 0.10000000)
		(3.30000000 0.05035513 0.10000000)
		(3.32000000 0.05035513 0.10000000)
		(3.34000000 0.05035513 0.10000000)
		(3.36000000 0.05035513 0.10000000)
		(3.38000000 0.05035513 0.10000000)
		(3.40000000 0.05035513 0.10000000)
		(3.42000000 0.05035513 0.10000000)
		(3.44000000 0.05035513 0.10000000)
		(3.46000000 0.05035513 0.10000000)
		(3.48000000 0.05035513 0.10000000)
		(3.50000000 0.05035513 0.10000000)
		(3.52000000 0.05035513 0.10000000)
		(3.54000000 0.05035513 0.10000000)
		(3.56000000 0.05035513 0.10000000)
		(3.58000000 0.05035513 0.10000000)
		(3.60000000 0.05035513 0.10000000)
		(3.62000000 0.05035513 0.10000000)
		(3.64000000 0.05035513 0.10000000)
		(3.66000000 0.05035513 0.10000000)
		(3.68000000 0.05035513 0.10000000)
		(3.70000000 0.05035513 0.10000000)
		(3.72000000 0.05035513 0.10000000)
		(3.74000000 0.05035513 0.10000000)
		(3.76000000 0.05035513 0.10000000)
		(3.78000000 0.05035513 0.10000000)
		(3.80000000 0.05035513 0.10000000)
		(3.82000000 0.05035513 0.10000000)
		(3.84000000 0.05035513 0.10000000)
		(3.86000000 0.05035513 0.10000000)
		(3.88000000 0.05035513 0.10000000)
		(3.90000000 0.05035513 0.10000000)
		(3.92000000 0.05035513 0.10000000)
		(3.94000000 0.05035513 0.10000000)
		(3.96000000 0.05035513 0.10000000)
		(3.98000000 0.05035513 0.10000000)
		(4.00000000 0.05035513 0.10000000)
	)
	polyLine 3 2
	(
		(-1.00000000 0.50300090 0.00000000)
		(-0.98000000 0.50303874 0.00000000)
		(-0.96000000 0.50307657 0.00000000)
		(-0.94000000 0.50311440 0.00000000)
		(-0.92000000 0.50315223 0.00000000)
		(-0.90000000 0.50319007 0.00000000)
		(-0.88000000 0.50322790 0.00000000)
		(-0.86000000 0.50326573 0.00000000)
		(-0.84000000 0.50330356 0.00000000)
		(-0.82000000 0.50334140 0.00000000)
		(-0.80000000 0.50337923 0.00000000)
		(-0.78000000 0.50341706 0.00000000)
		(-0.76000000 0.50345489 0.00000000)
		(-0.74000000 0.50349273 0.00000000)
		(-0.72000000 0.50353056 0.00000000)
		(-0.70000000 0.50356839 0.00000000)
		(-0.68000000 0.50360622 0.00000000)
		(-0.66000000 0.50364406 0.00000000)
		(-0.64000000 0.50368189 0.00000000)
		(-0.62000000 0.50371972 0.00000000)
		(-0.60000000 0.50375756 0.00000000)
		(-0.58000000 0.50379539 0.00000000)
		(-0.56000000 0.50383322 0.00000000)
		(-0.54000000 0.50387105 0.00000000)
		(-0.52000000 0.50390889 0.00000000)
		(-0.50000000 0.50394672 0.00000000)
		(-0.48000000 0.50398455 0.00000000)
		(-0.46000000 0.50402238 0.00000000)
		(-0.44000000 0.50406022 0.00000000)
		(-0.42000000 0.50409805 0.00000000)
		(-0.40000000 0.50413588 0.00000000)
		(-0.38000000 0.50417371 0.00000000)
		(-0.36000000 0.50421155 0.00000000)
		(-0.34000000 0.50424938 0.00000000)
		(-0.32000000 0.50428721 0.00000000)
		(-0.30000000 0.50432505 0.00000000)
		(-0.28000000 0.50436288 0.00000000)
		(-0.26000000 0.50440071 0.00000000)
		(-0.24000000 0.50443854 0.00000000)
		(-0.22000000 0.50447638 0.00000000)
		(-0.20000000 0.50451421 0.00000000)
		(-0.18000000 0.50455204 0.00000000)
		(-0.16000000 0.50458987 0.00000000)
		(-0.14000000 0.50462771 0.00000000)
		(-0.12000000 0.50466554 0.00000000)
		(-0.10000000 0.50470337 0.00000000)
		(-0.08162011 0.50545126 0.00000000)
		(-0.06324022 0.50364175 0.00000000)
		(-0.04486034 0.49927483 0.00000000)
		(-0.02648045 0.49235051 0.00000000)
		(-0.00810056 0.48286878 0.00000000)
		(0.01027933 0.47082965 0.00000000)
		(0.02865922 0.45623312 0.00000000)
		(0.04703911 0.43907918 0.00000000)
		(0.06541899 0.41936784 0.00000000)
		(0.08379888 0.39709909 0.00000000)
		(0.10055866 0.37619528 0.00000000)
		(0.11731844 0.35565042 0.00000000)
		(0.13407821 0.33552410 0.00000000)
		(0.15083799 0.31587465 0.00000000)
		(0.16759777 0.29675905 0.00000000)
		(0.18435754 0.27823272 0.00000000)
		(0.20111732 0.26034939 0.00000000)
		(0.21787709 0.24316089 0.00000000)
		(0.23463687 0.22671707 0.00000000)
		(0.25139665 0.21106561 0.00000000)
		(0.26815642 0.19625187 0.00000000)
		(0.28491620 0.18231882 0.00000000)
		(0.30167598 0.16930685 0.00000000)
		(0.31843575 0.15725368 0.00000000)
		(0.33519553 0.14619427 0.00000000)
		(0.35195531 0.13616068 0.00000000)
		(0.36871508 0.12718200 0.00000000)
		(0.38547486 0.11928427 0.00000000)
		(0.40223464 0.11249037 0.00000000)
		(0.41899441 0.10682002 0.00000000)
		(0.43575419 0.10228965 0.00000000)
		(0.45251397 0.09891239 0.00000000)
		(0.46927374 0.09669804 0.00000000)
		(0.48603352 0.09565302 0.00000000)
		(0.50279330 0.09578035 0.00000000)
		(0.51955307 0.09707968 0.00000000)
		(0.53631285 0.09954723 0.00000000)
		(0.55307263 0.10317584 0.00000000)
		(0.56983240 0.10795500 0.00000000)
		(0.58659218 0.11387085 0.00000000)
		(0.60335196 0.12090624 0.00000000)
		(0.62011173 0.12904077 0.00000000)
		(0.63687151 0.13825085 0.00000000)
		(0.65363128 0.14850978 0.00000000)
		(0.67039106 0.15978782 0.00000000)
		(0.68715084 0.17205227 0.00000000)
		(0.70391061 0.18526756 0.00000000)
		(0.72067039 0.19939538 0.00000000)
		(0.73743017 0.21439477 0.00000000)
		(0.75418994 0.23022225 0.00000000)
		(0.77094972 0.24683191 0.00000000)
		(0.78770950 0.26417560 0.00000000)
		(0.80446927 0.28220304 0.00000000)
		(0.82122905 0.30086196 0.00000000)
		(0.83798883 0.32009825 0.00000000)
		(0.85474860 0.33985615 0.00000000)
		(0.87150838 0.36007837 0.00000000)
		(0.88826816 0.38070628 0.00000000)
		(0.90502793 0.40168006 0.00000000)
		(0.92178771 0.42293892 0.00000000)
		(0.93854749 0.44442120 0.00000000)
		(0.95530726 0.46606462 0.00000000)
		(0.97206704 0.48780644 0.00000000)
		(0.98882682 0.50958361 0.00000000)
		(1.00558659 0.53133300 0.00000000)
		(1.02234637 0.55299154 0.00000000)
		(1.03910615 0.57449643 0.00000000)
		(1.05586592 0.59578533 0.00000000)
		(1.07262570 0.61679652 0.00000000)
		(1.08938547 0.63746906 0.00000000)
		(1.10614525 0.65774303 0.00000000)
		(1.12290503 0.67755964 0.00000000)
		(1.13966480 0.69686144 0.00000000)
		(1.15642458 0.71559246 0.00000000)
		(1.17318436 0.73369839 0.00000000)
		(1.18994413 0.75112675 0.00000000)
		(1.20670391 0.76782698 0.00000000)
		(1.22346369 0.78375069 0.00000000)
		(1.24022346 0.79885169 0.00000000)
		(1.25698324 0.81308621 0.00000000)
		(1.27374302 0.82641296 0.00000000)
		(1.29050279 0.83879332 0.00000000)
		(1.30726257 0.85019139 0.00000000)
		(1.32402235 0.86057412 0.00000000)
		(1.34078212 0.86991140 0.00000000)
		(1.35754190 0.87817617 0.00000000)
		(1.37430168 0.88534446 0.00000000)
		(1.39106145 0.89139548 0.00000000)
		(1.40782123 0.89631170 0.00000000)
		(1.42458101 0.90007886 0.00000000)
		(1.44134078 0.90268604 0.00000000)
		(1.45810056 0.90412567 0.00000000)
		(1.47486034 0.90439359 0.00000000)
		(1.49162011 0.90348901 0.00000000)
		(1.50837989 0.90141456 0.00000000)
		(1.52513966 0.89817626 0.00000000)
		(1.54189944 0.89378349 0.00000000)
		(1.55865922 0.88824899 0.00000000)
		(1.57541899 0.88158881 0.00000000)
		(1.59217877 0.87382225 0.00000000)
		(1.60893855 0.86497184 0.00000000)
		(1.62569832 0.85506323 0.00000000)
		(1.64245810 0.84412516 0.00000000)
		(1.65921788 0.83218934 0.00000000)
		(1.67597765 0.81929037 0.00000000)
		(1.69273743 0.80546565 0.00000000)
		(1.70949721 0.79075527 0.00000000)
		(1.72625698 0.77520188 0.00000000)
		(1.74301676 0.75885058 0.00000000)
		(1.75977654 0.74174876 0.00000000)
		(1.77653631 0.72394602 0.00000000)
		(1.79329609 0.70549398 0.00000000)
		(1.81005587 0.68644613 0.00000000)
		(1.82681564 0.66685770 0.00000000)
		(1.84357542 0.64678549 0.00000000)
		(1.86033520 0.62628768 0.00000000)
		(1.87709497 0.60542373 0.00000000)
		(1.89385475 0.58425410 0.00000000)
		(1.91061453 0.56284019 0.00000000)
		(1.92737430 0.54124409 0.00000000)
		(1.94413408 0.51952840 0.00000000)
		(1.96089385 0.49775609 0.00000000)
		(1.97765363 0.47599029 0.00000000)
		(1.99441341 0.45429410 0.00000000)
		(2.01117318 0.43273043 0.00000000)
		(2.02793296 0.41136180 0.00000000)
		(2.04469274 0.39025016 0.00000000)
		(2.06145251 0.36945674 0.00000000)
		(2.07821229 0.34904180 0.00000000)
		(2.09497207 0.32906456 0.00000000)
		(2.11173184 0.30958292 0.00000000)
		(2.12849162 0.29065338 0.00000000)
		(2.14525140 0.27233081 0.00000000)
		(2.16201117 0.25466834 0.00000000)
		(2.17877095 0.23771719 0.00000000)
		(2.19553073 0.22152649 0.00000000)
		(2.21229050 0.20614320 0.00000000)
		(2.22905028 0.19161191 0.00000000)
		(2.24581006 0.17797475 0.00000000)
		(2.26256983 0.16527127 0.00000000)
		(2.27932961 0.15353830 0.00000000)
		(2.29608939 0.14280986 0.00000000)
		(2.31284916 0.13311705 0.00000000)
		(2.32960894 0.12448797 0.00000000)
		(2.34636872 0.11694765 0.00000000)
		(2.36312849 0.11051795 0.00000000)
		(2.37988827 0.10521750 0.00000000)
		(2.39664804 0.10106168 0.00000000)
		(2.41340782 0.09806254 0.00000000)
		(2.43016760 0.09622877 0.00000000)
		(2.44692737 0.09556569 0.00000000)
		(2.46368715 0.09607521 0.00000000)
		(2.48044693 0.09775588 0.00000000)
		(2.49720670 0.10060280 0.00000000)
		(2.51396648 0.10460773 0.00000000)
		(2.53072626 0.10975906 0.00000000)