/*--------------------------------*- C++ -*----------------------------------*\\
/*--------------------------------*- C++ -*----------------------------------*\\
| =========                 |                                                 |
| \\\\      /  F ield         | OpenFOAM: The Open Source CFD Toolbox           |
|  \\\\    /   O peration     | Version:  v2012                                 |
|   \\\\  /    A nd           | Website:  www.openfoam.com                      |
|    \\\\/     M anipulation  |                                                 |
\\*---------------------------------------------------------------------------*/
FoamFile
{
    version     2.0;
    format      ascii;
    class       dictionary;
    object      blockMeshDict;
}
// * * * * * * * * * * * * * * * * * * * * * * * * * * * * * * * * * * * * * //

scale   0.01;

xmin -1;
xmax 5;
ymin 0;
ymax 0.5;
zmin 0;
zmax 0.1;

vertices
(
    (-1.00000000 0.15292839 0.00000000)
    (4.00000000 0.18356987 0.00000000)
    (4.00000000 0.68356987 0.00000000)
    (-1.00000000 0.65292839 0.00000000)
    (-1.00000000 0.15292839 0.10000000)
    (4.00000000 0.18356987 0.10000000)
    (4.00000000 0.68356987 0.10000000)
    (-1.00000000 0.65292839 0.10000000)
);

blocks
(
    hex (0 1 2 3 4 5 6 7) (200 20 1) simpleGrading (1 1 1)
);

edges
(
	polyLine 0 1
	(
		(-1.00000000 0.15292839 0.00000000)
		(-0.98000000 0.15292839 0.00000000)
		(-0.96000000 0.15292839 0.00000000)
		(-0.94000000 0.15292839 0.00000000)
		(-0.92000000 0.15292839 0.00000000)
		(-0.90000000 0.15292839 0.00000000)
		(-0.88000000 0.15292839 0.00000000)
		(-0.86000000 0.15292839 0.00000000)
		(-0.84000000 0.15292839 0.00000000)
		(-0.82000000 0.15292839 0.00000000)
		(-0.80000000 0.15292839 0.00000000)
		(-0.78000000 0.15292839 0.00000000)
		(-0.76000000 0.15292839 0.00000000)
		(-0.74000000 0.15292839 0.00000000)
		(-0.72000000 0.15292839 0.00000000)
		(-0.70000000 0.15292839 0.00000000)
		(-0.68000000 0.15292839 0.00000000)
		(-0.66000000 0.15292839 0.00000000)
		(-0.64000000 0.15292839 0.00000000)
		(-0.62000000 0.15292839 0.00000000)
		(-0.60000000 0.15292839 0.00000000)
		(-0.58000000 0.15292839 0.00000000)
		(-0.56000000 0.15292839 0.00000000)
		(-0.54000000 0.15292839 0.00000000)
		(-0.52000000 0.15292839 0.00000000)
		(-0.50000000 0.15292839 0.00000000)
		(-0.48000000 0.15292839 0.00000000)
		(-0.46000000 0.15292839 0.00000000)
		(-0.44000000 0.15292839 0.00000000)
		(-0.42000000 0.15292839 0.00000000)
		(-0.40000000 0.15292839 0.00000000)
		(-0.38000000 0.15292839 0.00000000)
		(-0.36000000 0.15292839 0.00000000)
		(-0.34000000 0.15292839 0.00000000)
		(-0.32000000 0.15292839 0.00000000)
		(-0.30000000 0.15292839 0.00000000)
		(-0.28000000 0.15292839 0.00000000)
		(-0.26000000 0.15292839 0.00000000)
		(-0.24000000 0.15292839 0.00000000)
		(-0.22000000 0.15292839 0.00000000)
		(-0.20000000 0.15292839 0.00000000)
		(-0.18000000 0.15292839 0.00000000)
		(-0.16000000 0.15292839 0.00000000)
		(-0.14000000 0.15292839 0.00000000)
		(-0.12000000 0.15292839 0.00000000)
		(-0.10000000 0.15292839 0.00000000)
		(-0.08162011 0.15226466 0.00000000)
		(-0.06324022 0.15027349 0.00000000)
		(-0.04486034 0.14695487 0.00000000)
		(-0.02648045 0.14230880 0.00000000)
		(-0.00810056 0.13633528 0.00000000)
		(0.01027933 0.12903432 0.00000000)
		(0.02865922 0.12040591 0.00000000)
		(0.04703911 0.11045005 0.00000000)
		(0.06541899 0.09916674 0.00000000)
		(0.08379888 0.08655598 0.00000000)
		(0.10055866 0.07211228 0.00000000)
		(0.11731844 0.05740090 0.00000000)
		(0.13407821 0.04247644 0.00000000)
		(0.15083799 0.02739430 0.00000000)
		(0.16759777 0.01221047 0.00000000)
		(0.18435754 -0.00301869 0.00000000)
		(0.20111732 -0.01823664 0.00000000)
		(0.21787709 -0.03338689 0.00000000)
		(0.23463687 -0.04841321 0.00000000)
		(0.25139665 -0.06325981 0.00000000)
		(0.26815642 -0.07787159 0.00000000)
		(0.28491620 -0.09219430 0.00000000)
		(0.30167598 -0.10617478 0.00000000)
		(0.31843575 -0.11976113 0.00000000)
		(0.33519553 -0.13290291 0.00000000)
		(0.35195531 -0.14555135 0.00000000)
		(0.36871508 -0.15765949 0.00000000)
		(0.38547486 -0.16918238 0.00000000)
		(0.40223464 -0.18007724 0.00000000)
		(0.41899441 -0.19030365 0.00000000)
		(0.43575419 -0.19982363 0.00000000)
		(0.45251397 -0.20860185 0.00000000)
		(0.46927374 -0.21660572 0.00000000)
		(0.48603352 -0.22380553 0.00000000)
		(0.50279330 -0.23017456 0.00000000)
		(0.51955307 -0.23568915 0.00000000)
		(0.53631285 -0.24032885 0.00000000)
		(0.55307263 -0.24407642 0.00000000)
		(0.56983240 -0.24691796 0.00000000)
		(0.58659218 -0.24884292 0.00000000)
		(0.60335196 -0.24984415 0.00000000)
		(0.62011173 -0.24991793 0.00000000)
		(0.63687151 -0.24906400 0.00000000)
		(0.65363128 -0.24728552 0.00000000)
		(0.67039106 -0.24458909 0.00000000)
		(0.68715084 -0.24098473 0.00000000)
		(0.70391061 -0.23648581 0.00000000)
		(0.72067039 -0.23110903 0.00000000)
		(0.73743017 -0.22487436 0.00000000)
		(0.75418994 -0.21780493 0.00000000)
		(0.77094972 -0.20992699 0.00000000)
		(0.78770950 -0.20126978 0.00000000)
		(0.80446927 -0.19186544 0.00000000)
		(0.82122905 -0.18174888 0.00000000)
		(0.83798883 -0.17095765 0.00000000)
		(0.85474860 -0.15953181 0.00000000)
		(0.87150838 -0.14751377 0.00000000)
		(0.88826816 -0.13494815 0.00000000)
		(0.90502793 -0.12188159 0.00000000)
		(0.92178771 -0.10836259 0.00000000)
		(0.93854749 -0.09444134 0.00000000)
		(0.95530726 -0.08016952 0.00000000)
		(0.97206704 -0.06560010 0.00000000)
		(0.98882682 -0.05078717 0.00000000)
		(1.00558659 -0.03578571 0.00000000)
		(1.02234637 -0.02065141 0.00000000)
		(1.03910615 -0.00544045 0.00000000)
		(1.05586592 0.00979071 0.00000000)
		(1.07262570 0.02498552 0.00000000)
		(1.08938547 0.04008758 0.00000000)
		(1.10614525 0.05504083 0.00000000)
		(1.12290503 0.06978977 0.00000000)
		(1.13966480 0.08427964 0.00000000)
		(1.15642458 0.09845666 0.00000000)
		(1.17318436 0.11226820 0.00000000)
		(1.18994413 0.12566298 0.00000000)
		(1.20670391 0.13859130 0.00000000)
		(1.22346369 0.15100515 0.00000000)
		(1.24022346 0.16285846 0.00000000)
		(1.25698324 0.17410722 0.00000000)
		(1.27374302 0.18470968 0.00000000)
		(1.29050279 0.19462648 0.00000000)
		(1.30726257 0.20382081 0.00000000)
		(1.32402235 0.21225854 0.00000000)
		(1.34078212 0.21990834 0.00000000)
		(1.35754190 0.22674183 0.00000000)
		(1.37430168 0.23273363 0.00000000)
		(1.39106145 0.23786150 0.00000000)
		(1.40782123 0.24210641 0.00000000)
		(1.42458101 0.24545260 0.00000000)
		(1.44134078 0.24788764 0.00000000)
		(1.45810056 0.24940251 0.00000000)
		(1.47486034 0.24999157 0.00000000)
		(1.49162011 0.24965263 0.00000000)
		(1.50837989 0.24838697 0.00000000)
		(1.52513966 0.24619927 0.00000000)
		(1.54189944 0.24309765 0.00000000)
		(1.55865922 0.23909364 0.00000000)
		(1.57541899 0.23420209 0.00000000)
		(1.59217877 0.22844115 0.00000000)
		(1.60893855 0.22183223 0.00000000)
		(1.62569832 0.21439984 0.00000000)
		(1.64245810 0.20617158 0.00000000)
		(1.65921788 0.19717800 0.00000000)
		(1.67597765 0.18745247 0.00000000)
		(1.69273743 0.17703110 0.00000000)
		(1.70949721 0.16595258 0.00000000)
		(1.72625698 0.15425802 0.00000000)
		(1.74301676 0.14199084 0.00000000)
		(1.75977654 0.12919659 0.00000000)
		(1.77653631 0.11592274 0.00000000)
		(1.79329609 0.10221858 0.00000000)
		(1.81005587 0.08813497 0.00000000)
		(1.82681564 0.07372419 0.00000000)
		(1.84357542 0.05903975 0.00000000)
		(1.86033520 0.04413615 0.00000000)
		(1.87709497 0.02906870 0.00000000)
		(1.89385475 0.01389336 0.00000000)
		(1.91061453 -0.00133356 0.00000000)
		(1.92737430 -0.01655554 0.00000000)
		(1.94413408 -0.03171605 0.00000000)
		(1.96089385 -0.04675883 0.00000000)
		(1.97765363 -0.06162804 0.00000000)
		(1.99441341 -0.07626848 0.00000000)
		(2.01117318 -0.09062581 0.00000000)
		(2.02793296 -0.10464672 0.00000000)
		(2.04469274 -0.11827918 0.00000000)
		(2.06145251 -0.13147257 0.00000000)
		(2.07821229 -0.14417792 0.00000000)
		(2.09497207 -0.15634808 0.00000000)
		(2.11173184 -0.16793785 0.00000000)
		(2.12849162 -0.17890423 0.00000000)
		(2.14525140 -0.18920649 0.00000000)
		(2.16201117 -0.19880640 0.00000000)
		(2.17877095 -0.20766833 0.00000000)
		(2.19553073 -0.21575937 0.00000000)
		(2.21229050 -0.22304950 0.00000000)
		(2.22905028 -0.22951164 0.00000000)
		(2.24581006 -0.23512182 0.00000000)
		(2.26256983 -0.23985920 0.00000000)
		(2.27932961 -0.24370621 0.00000000)
		(2.29608939 -0.24664855 0.00000000)
		(2.31284916 -0.24867532 0.00000000)
		(2.32960894 -0.24977897 0.00000000)
		(2.34636872 -0.24995543 0.00000000)
		(2.36312849 -0.24920403 0.00000000)
		(2.37988827 -0.24752756 0.00000000)
		(2.39664804 -0.24493224 0.00000000)
		(2.41340782 -0.24142772 0.00000000)
		(2.43016760 -0.23702699 0.00000000)
		(2.44692737 -0.23174640 0.00000000)
		(2.46368715 -0.22560555 0.00000000)
		(2.48044693 -0.21862722 0.00000000)
		(2.49720670 -0.21083733 0.00000000)
		(2.51396648 -0.20226480 0.00000000)
		(2.53072626 -0.19294144 0.00000000)
		(2.54748603 -0.18290186 0.00000000)
		(2.56424581 -0.17218334 0.00000000)
		(2.58100559 -0.16082565 0.00000000)
		(2.59776536 -0.14887097 0.00000000)
		(2.61452514 -0.13636366 0.00000000)
		(2.63128492 -0.12335016 0.00000000)
		(2.64804469 -0.10987877 0.00000000)
		(2.66480447 -0.09599951 0.00000000)
		(2.68156425 -0.08176388 0.00000000)
		(2.69832402 -0.06722474 0.00000000)
		(2.71508380 -0.05243605 0.00000000)
		(2.73184358 -0.03745272 0.00000000)
		(2.74860335 -0.02233036 0.00000000)
		(2.76536313 -0.00712510 0.00000000)
		(2.78212291 0.00810660 0.00000000)
		(2.79888268 0.02330821 0.00000000)
		(2.81564246 0.03842330 0.00000000)
		(2.83240223 0.05339575 0.00000000)
		(2.84916201 0.06817000 0.00000000)
		(2.86592179 0.08269120 0.00000000)
		(2.88268156 0.09690543 0.00000000)
		(2.89944134 0.11075995 0.00000000)
		(2.91620112 0.12420331 0.00000000)
		(2.93296089 0.13718562 0.00000000)
		(2.95166480 0.14599863 0.00000000)
		(2.97036872 0.15388395 0.00000000)
		(2.98907263 0.16084159 0.00000000)
		(3.00777654 0.16687154 0.00000000)
		(3.02648045 0.17197381 0.00000000)
		(3.04518436 0.17614839 0.00000000)
		(3.06388827 0.17939529 0.00000000)
		(3.08259218 0.18171450 0.00000000)
		(3.10129609 0.18310603 0.00000000)
		(3.12000000 0.18356987 0.00000000)
		(3.14000000 0.18356987 0.00000000)
		(3.16000000 0.18356987 0.00000000)
		(3.18000000 0.18356987 0.00000000)
		(3.20000000 0.18356987 0.00000000)
		(3.22000000 0.18356987 0.00000000)
		(3.24000000 0.18356987 0.00000000)
		(3.26000000 0.18356987 0.00000000)
		(3.28000000 0.18356987 0.00000000)
		(3.30000000 0.18356987 0.00000000)
		(3.32000000 0.18356987 0.00000000)
		(3.34000000 0.18356987 0.00000000)
		(3.36000000 0.18356987 0.00000000)
		(3.38000000 0.18356987 0.00000000)
		(3.40000000 0.18356987 0.00000000)
		(3.42000000 0.18356987 0.00000000)
		(3.44000000 0.18356987 0.00000000)
		(3.46000000 0.18356987 0.00000000)
		(3.48000000 0.18356987 0.00000000)
		(3.50000000 0.18356987 0.00000000)
		(3.52000000 0.18356987 0.00000000)
		(3.54000000 0.18356987 0.00000000)
		(3.56000000 0.18356987 0.00000000)
		(3.58000000 0.18356987 0.00000000)
		(3.60000000 0.18356987 0.00000000)
		(3.62000000 0.18356987 0.00000000)
		(3.64000000 0.18356987 0.00000000)
		(3.66000000 0.18356987 0.00000000)
		(3.68000000 0.18356987 0.00000000)
		(3.70000000 0.18356987 0.00000000)
		(3.72000000 0.18356987 0.00000000)
		(3.74000000 0.18356987 0.00000000)
		(3.76000000 0.18356987 0.00000000)
		(3.78000000 0.18356987 0.00000000)
		(3.80000000 0.18356987 0.00000000)
		(3.82000000 0.18356987 0.00000000)
		(3.84000000 0.18356987 0.00000000)
		(3.86000000 0.18356987 0.00000000)
		(3.88000000 0.18356987 0.00000000)
		(3.90000000 0.18356987 0.00000000)
		(3.92000000 0.18356987 0.00000000)
		(3.94000000 0.18356987 0.00000000)
		(3.96000000 0.18356987 0.00000000)
		(3.98000000 0.18356987 0.00000000)
		(4.00000000 0.18356987 0.00000000)
	)
	polyLine 4 5
	(
		(-1.00000000 0.15292839 0.10000000)
		(-0.98000000 0.15292839 0.10000000)
		(-0.96000000 0.15292839 0.10000000)
		(-0.94000000 0.15292839 0.10000000)
		(-0.92000000 0.15292839 0.10000000)
		(-0.90000000 0.15292839 0.10000000)
		(-0.88000000 0.15292839 0.10000000)
		(-0.86000000 0.15292839 0.10000000)
		(-0.84000000 0.15292839 0.10000000)
		(-0.82000000 0.15292839 0.10000000)
		(-0.80000000 0.15292839 0.10000000)
		(-0.78000000 0.15292839 0.10000000)
		(-0.76000000 0.15292839 0.10000000)
		(-0.74000000 0.15292839 0.10000000)
		(-0.72000000 0.15292839 0.10000000)
		(-0.70000000 0.15292839 0.10000000)
		(-0.68000000 0.15292839 0.10000000)
		(-0.66000000 0.15292839 0.10000000)
		(-0.64000000 0.15292839 0.10000000)
		(-0.62000000 0.15292839 0.10000000)
		(-0.60000000 0.15292839 0.10000000)
		(-0.58000000 0.15292839 0.10000000)
		(-0.56000000 0.15292839 0.10000000)
		(-0.54000000 0.15292839 0.10000000)
		(-0.52000000 0.15292839 0.10000000)
		(-0.50000000 0.15292839 0.10000000)
		(-0.48000000 0.15292839 0.10000000)
		(-0.46000000 0.15292839 0.10000000)
		(-0.44000000 0.15292839 0.10000000)
		(-0.42000000 0.15292839 0.10000000)
		(-0.40000000 0.15292839 0.10000000)
		(-0.38000000 0.15292839 0.10000000)
		(-0.36000000 0.15292839 0.10000000)
		(-0.34000000 0.15292839 0.10000000)
		(-0.32000000 0.15292839 0.10000000)
		(-0.30000000 0.15292839 0.10000000)
		(-0.28000000 0.15292839 0.10000000)
		(-0.26000000 0.15292839 0.10000000)
		(-0.24000000 0.15292839 0.10000000)
		(-0.22000000 0.15292839 0.10000000)
		(-0.20000000 0.15292839 0.10000000)
		(-0.18000000 0.15292839 0.10000000)
		(-0.16000000 0.15292839 0.10000000)
		(-0.14000000 0.15292839 0.10000000)
		(-0.12000000 0.15292839 0.10000000)
		(-0.10000000 0.15292839 0.10000000)
		(-0.08162011 0.15226466 0.10000000)
		(-0.06324022 0.15027349 0.10000000)
		(-0.04486034 0.14695487 0.10000000)
		(-0.02648045 0.14230880 0.10000000)
		(-0.00810056 0.13633528 0.10000000)
		(0.01027933 0.12903432 0.10000000)
		(0.02865922 0.12040591 0.10000000)
		(0.04703911 0.11045005 0.10000000)
		(0.06541899 0.09916674 0.10000000)
		(0.08379888 0.08655598 0.10000000)
		(0.10055866 0.07211228 0.10000000)
		(0.11731844 0.05740090 0.10000000)
		(0.13407821 0.04247644 0.10000000)
		(0.15083799 0.02739430 0.10000000)
		(0.16759777 0.01221047 0.10000000)
		(0.18435754 -0.00301869 0.10000000)
		(0.20111732 -0.01823664 0.10000000)
		(0.21787709 -0.03338689 0.10000000)
		(0.23463687 -0.04841321 0.10000000)
		(0.25139665 -0.06325981 0.10000000)
		(0.26815642 -0.07787159 0.10000000)
		(0.28491620 -0.09219430 0.10000000)
		(0.30167598 -0.10617478 0.10000000)
		(0.31843575 -0.11976113 0.10000000)
		(0.33519553 -0.13290291 0.10000000)
		(0.35195531 -0.14555135 0.10000000)
		(0.36871508 -0.15765949 0.10000000)
		(0.38547486 -0.16918238 0.10000000)
		(0.40223464 -0.18007724 0.10000000)
		(0.41899441 -0.19030365 0.10000000)
		(0.43575419 -0.19982363 0.10000000)
		(0.45251397 -0.20860185 0.10000000)
		(0.46927374 -0.21660572 0.10000000)
		(0.48603352 -0.22380553 0.10000000)
		(0.50279330 -0.23017456 0.10000000)
		(0.51955307 -0.23568915 0.10000000)
		(0.53631285 -0.24032885 0.10000000)
		(0.55307263 -0.24407642 0.10000000)
		(0.56983240 -0.24691796 0.10000000)
		(0.58659218 -0.24884292 0.10000000)
		(0.60335196 -0.24984415 0.10000000)
		(0.62011173 -0.24991793 0.10000000)
		(0.63687151 -0.24906400 0.10000000)
		(0.65363128 -0.24728552 0.10000000)
		(0.67039106 -0.24458909 0.10000000)
		(0.68715084 -0.24098473 0.10000000)
		(0.70391061 -0.23648581 0.10000000)
		(0.72067039 -0.23110903 0.10000000)
		(0.73743017 -0.22487436 0.10000000)
		(0.75418994 -0.21780493 0.10000000)
		(0.77094972 -0.20992699 0.10000000)
		(0.78770950 -0.20126978 0.10000000)
		(0.80446927 -0.19186544 0.10000000)
		(0.82122905 -0.18174888 0.10000000)
		(0.83798883 -0.17095765 0.10000000)
		(0.85474860 -0.15953181 0.10000000)
		(0.87150838 -0.14751377 0.10000000)
		(0.88826816 -0.13494815 0.10000000)
		(0.90502793 -0.12188159 0.10000000)
		(0.92178771 -0.10836259 0.10000000)
		(0.93854749 -0.09444134 0.10000000)
		(0.95530726 -0.08016952 0.10000000)
		(0.97206704 -0.06560010 0.10000000)
		(0.98882682 -0.05078717 0.10000000)
		(1.00558659 -0.03578571 0.10000000)
		(1.02234637 -0.02065141 0.10000000)
		(1.03910615 -0.00544045 0.10000000)
		(1.05586592 0.00979071 0.10000000)
		(1.07262570 0.02498552 0.10000000)
		(1.08938547 0.04008758 0.10000000)
		(1.10614525 0.05504083 0.10000000)
		(1.12290503 0.06978977 0.10000000)
		(1.13966480 0.08427964 0.10000000)
		(1.15642458 0.09845666 0.10000000)
		(1.17318436 0.11226820 0.10000000)
		(1.18994413 0.12566298 0.10000000)
		(1.20670391 0.13859130 0.10000000)
		(1.22346369 0.15100515 0.10000000)
		(1.24022346 0.16285846 0.10000000)
		(1.25698324 0.17410722 0.10000000)
		(1.27374302 0.18470968 0.10000000)
		(1.29050279 0.19462648 0.10000000)
		(1.30726257 0.20382081 0.10000000)
		(1.32402235 0.21225854 0.10000000)
		(1.34078212 0.21990834 0.10000000)
		(1.35754190 0.22674183 0.10000000)
		(1.37430168 0.23273363 0.10000000)
		(1.39106145 0.23786150 0.10000000)
		(1.40782123 0.24210641 0.10000000)
		(1.42458101 0.24545260 0.10000000)
		(1.44134078 0.24788764 0.10000000)
		(1.45810056 0.24940251 0.10000000)
		(1.47486034 0.24999157 0.10000000)
		(1.49162011 0.24965263 0.10000000)
		(1.50837989 0.24838697 0.10000000)
		(1.52513966 0.24619927 0.10000000)
		(1.54189944 0.24309765 0.10000000)
		(1.55865922 0.23909364 0.10000000)
		(1.57541899 0.23420209 0.10000000)
		(1.59217877 0.22844115 0.10000000)
		(1.60893855 0.22183223 0.10000000)
		(1.62569832 0.21439984 0.10000000)
		(1.64245810 0.20617158 0.10000000)
		(1.65921788 0.19717800 0.10000000)
		(1.67597765 0.18745247 0.10000000)
		(1.69273743 0.17703110 0.10000000)
		(1.70949721 0.16595258 0.10000000)
		(1.72625698 0.15425802 0.10000000)
		(1.74301676 0.14199084 0.10000000)
		(1.75977654 0.12919659 0.10000000)
		(1.77653631 0.11592274 0.10000000)
		(1.79329609 0.10221858 0.10000000)
		(1.81005587 0.08813497 0.10000000)
		(1.82681564 0.07372419 0.10000000)
		(1.84357542 0.05903975 0.10000000)
		(1.86033520 0.04413615 0.10000000)
		(1.87709497 0.02906870 0.10000000)
		(1.89385475 0.01389336 0.10000000)
		(1.91061453 -0.00133356 0.10000000)
		(1.92737430 -0.01655554 0.10000000)
		(1.94413408 -0.03171605 0.10000000)
		(1.96089385 -0.04675883 0.10000000)
		(1.97765363 -0.06162804 0.10000000)
		(1.99441341 -0.07626848 0.10000000)
		(2.01117318 -0.09062581 0.10000000)
		(2.02793296 -0.10464672 0.10000000)
		(2.04469274 -0.11827918 0.10000000)
		(2.06145251 -0.13147257 0.10000000)
		(2.07821229 -0.14417792 0.10000000)
		(2.09497207 -0.15634808 0.10000000)
		(2.11173184 -0.16793785 0.10000000)
		(2.12849162 -0.17890423 0.10000000)
		(2.14525140 -0.18920649 0.10000000)
		(2.16201117 -0.19880640 0.10000000)
		(2.17877095 -0.20766833 0.10000000)
		(2.19553073 -0.21575937 0.10000000)
		(2.21229050 -0.22304950 0.10000000)
		(2.22905028 -0.22951164 0.10000000)
		(2.24581006 -0.23512182 0.10000000)
		(2.26256983 -0.23985920 0.10000000)
		(2.27932961 -0.24370621 0.10000000)
		(2.29608939 -0.24664855 0.10000000)
		(2.31284916 -0.24867532 0.10000000)
		(2.32960894 -0.24977897 0.10000000)
		(2.34636872 -0.24995543 0.10000000)
		(2.36312849 -0.24920403 0.10000000)
		(2.37988827 -0.24752756 0.10000000)
		(2.39664804 -0.24493224 0.10000000)
		(2.41340782 -0.24142772 0.10000000)
		(2.43016760 -0.23702699 0.10000000)
		(2.44692737 -0.23174640 0.10000000)
		(2.46368715 -0.22560555 0.10000000)
		(2.48044693 -0.21862722 0.10000000)
		(2.49720670 -0.21083733 0.10000000)
		(2.51396648 -0.20226480 0.10000000)
		(2.53072626 -0.19294144 0.10000000)
		(2.54748603 -0.18290186 0.10000000)
		(2.56424581 -0.17218334 0.10000000)
		(2.58100559 -0.16082565 0.10000000)
		(2.59776536 -0.14887097 0.10000000)
		(2.61452514 -0.13636366 0.10000000)
		(2.63128492 -0.12335016 0.10000000)
		(2.64804469 -0.10987877 0.10000000)
		(2.66480447 -0.09599951 0.10000000)
		(2.68156425 -0.08176388 0.10000000)
		(2.69832402 -0.06722474 0.10000000)
		(2.71508380 -0.05243605 0.10000000)
		(2.73184358 -0.03745272 0.10000000)
		(2.74860335 -0.02233036 0.10000000)
		(2.76536313 -0.00712510 0.10000000)
		(2.78212291 0.00810660 0.10000000)
		(2.79888268 0.02330821 0.10000000)
		(2.81564246 0.03842330 0.10000000)
		(2.83240223 0.05339575 0.10000000)
		(2.84916201 0.06817000 0.10000000)
		(2.86592179 0.08269120 0.10000000)
		(2.88268156 0.09690543 0.10000000)
		(2.89944134 0.11075995 0.10000000)
		(2.91620112 0.12420331 0.10000000)
		(2.93296089 0.13718562 0.10000000)
		(2.95166480 0.14599863 0.10000000)
		(2.97036872 0.15388395 0.10000000)
		(2.98907263 0.16084159 0.10000000)
		(3.00777654 0.16687154 0.10000000)
		(3.02648045 0.17197381 0.10000000)
		(3.04518436 0.17614839 0.10000000)
		(3.06388827 0.17939529 0.10000000)
		(3.08259218 0.18171450 0.10000000)
		(3.10129609 0.18310603 0.10000000)
		(3.12000000 0.18356987 0.10000000)
		(3.14000000 0.18356987 0.10000000)
		(3.16000000 0.18356987 0.10000000)
		(3.18000000 0.18356987 0.10000000)
		(3.20000000 0.18356987 0.10000000)
		(3.22000000 0.18356987 0.10000000)
		(3.24000000 0.18356987 0.10000000)
		(3.26000000 0.18356987 0.10000000)
		(3.28000000 0.18356987 0.10000000)
		(3.30000000 0.18356987 0.10000000)
		(3.32000000 0.18356987 0.10000000)
		(3.34000000 0.18356987 0.10000000)
		(3.36000000 0.18356987 0.10000000)
		(3.38000000 0.18356987 0.10000000)
		(3.40000000 0.18356987 0.10000000)
		(3.42000000 0.18356987 0.10000000)
		(3.44000000 0.18356987 0.10000000)
		(3.46000000 0.18356987 0.10000000)
		(3.48000000 0.18356987 0.10000000)
		(3.50000000 0.18356987 0.10000000)
		(3.52000000 0.18356987 0.10000000)
		(3.54000000 0.18356987 0.10000000)
		(3.56000000 0.18356987 0.10000000)
		(3.58000000 0.18356987 0.10000000)
		(3.60000000 0.18356987 0.10000000)
		(3.62000000 0.18356987 0.10000000)
		(3.64000000 0.18356987 0.10000000)
		(3.66000000 0.18356987 0.10000000)
		(3.68000000 0.18356987 0.10000000)
		(3.70000000 0.18356987 0.10000000)
		(3.72000000 0.18356987 0.10000000)
		(3.74000000 0.18356987 0.10000000)
		(3.76000000 0.18356987 0.10000000)
		(3.78000000 0.18356987 0.10000000)
		(3.80000000 0.18356987 0.10000000)
		(3.82000000 0.18356987 0.10000000)
		(3.84000000 0.18356987 0.10000000)
		(3.86000000 0.18356987 0.10000000)
		(3.88000000 0.18356987 0.10000000)
		(3.90000000 0.18356987 0.10000000)
		(3.92000000 0.18356987 0.10000000)
		(3.94000000 0.18356987 0.10000000)
		(3.96000000 0.18356987 0.10000000)
		(3.98000000 0.18356987 0.10000000)
		(4.00000000 0.18356987 0.10000000)
	)
	polyLine 3 2
	(
		(-1.00000000 0.65292839 0.00000000)
		(-0.98000000 0.65155850 0.00000000)
		(-0.96000000 0.65018861 0.00000000)
		(-0.94000000 0.64881872 0.00000000)
		(-0.92000000 0.64744883 0.00000000)
		(-0.90000000 0.64607894 0.00000000)
		(-0.88000000 0.64470905 0.00000000)
		(-0.86000000 0.64333916 0.00000000)
		(-0.84000000 0.64196927 0.00000000)
		(-0.82000000 0.64059938 0.00000000)
		(-0.80000000 0.63922949 0.00000000)
		(-0.78000000 0.63785960 0.00000000)
		(-0.76000000 0.63648971 0.00000000)
		(-0.74000000 0.63511982 0.00000000)
		(-0.72000000 0.63374993 0.00000000)
		(-0.70000000 0.63238004 0.00000000)
		(-0.68000000 0.63101015 0.00000000)
		(-0.66000000 0.62964026 0.00000000)
		(-0.64000000 0.62827037 0.00000000)
		(-0.62000000 0.62690048 0.00000000)
		(-0.60000000 0.62553059 0.00000000)
		(-0.58000000 0.62416070 0.00000000)
		(-0.56000000 0.62279081 0.00000000)
		(-0.54000000 0.62142092 0.00000000)
		(-0.52000000 0.62005103 0.00000000)
		(-0.50000000 0.61868114 0.00000000)
		(-0.48000000 0.61731125 0.00000000)
		(-0.46000000 0.61594136 0.00000000)
		(-0.44000000 0.61457147 0.00000000)
		(-0.42000000 0.61320158 0.00000000)
		(-0.40000000 0.61183169 0.00000000)
		(-0.38000000 0.61046180 0.00000000)
		(-0.36000000 0.60909191 0.00000000)
		(-0.34000000 0.60772202 0.00000000)
		(-0.32000000 0.60635213 0.00000000)
		(-0.30000000 0.60498224 0.00000000)
		(-0.28000000 0.60361235 0.00000000)
		(-0.26000000 0.60224246 0.00000000)
		(-0.24000000 0.60087257 0.00000000)
		(-0.22000000 0.59950268 0.00000000)
		(-0.20000000 0.59813279 0.00000000)
		(-0.18000000 0.59676290 0.00000000)
		(-0.16000000 0.59539301 0.00000000)
		(-0.14000000 0.59402312 0.00000000)
		(-0.12000000 0.59265323 0.00000000)
		(-0.10000000 0.59128334 0.00000000)
		(-0.08162011 0.59057531 0.00000000)
		(-0.06324022 0.58907530 0.00000000)
		(-0.04486034 0.58678332 0.00000000)
		(-0.02648045 0.58369937 0.00000000)
		(-0.00810056 0.57982343 0.00000000)
		(0.01027933 0.57515552 0.00000000)
		(0.02865922 0.56969563 0.00000000)
		(0.04703911 0.56344377 0.00000000)
		(0.06541899 0.55639992 0.00000000)
		(0.08379888 0.54856411 0.00000000)
		(0.10055866 0.54046016 0.00000000)
		(0.11731844 0.53220602 0.00000000)
		(0.13407821 0.52383232 0.00000000)
		(0.15083799 0.51537016 0.00000000)
		(0.16759777 0.50685095 0.00000000)
		(0.18435754 0.49830630 0.00000000)
		(0.20111732 0.48976794 0.00000000)
		(0.21787709 0.48126756 0.00000000)
		(0.23463687 0.47283672 0.00000000)
		(0.25139665 0.46450671 0.00000000)
		(0.26815642 0.45630846 0.00000000)
		(0.28491620 0.44827239 0.00000000)
		(0.30167598 0.44042834 0.00000000)
		(0.31843575 0.43280543 0.00000000)
		(0.33519553 0.42543195 0.00000000)
		(0.35195531 0.41833527 0.00000000)
		(0.36871508 0.41154174 0.00000000)
		(0.38547486 0.40507657 0.00000000)
		(0.40223464 0.39896377 0.00000000)
		(0.41899441 0.39322602 0.00000000)
		(0.43575419 0.38788463 0.00000000)
		(0.45251397 0.38295942 0.00000000)
		(0.46927374 0.37846867 0.00000000)
		(0.48603352 0.37442907 0.00000000)
		(0.50279330 0.37085559 0.00000000)
		(0.51955307 0.36776150 0.00000000)
		(0.53631285 0.36515830 0.00000000)
		(0.55307263 0.36305565 0.00000000)
		(0.56983240 0.36146134 0.00000000)
		(0.58659218 0.36038130 0.00000000)
		(0.60335196 0.35981954 0.00000000)
		(0.62011173 0.35977814 0.00000000)
		(0.63687151 0.36025726 0.00000000)
		(0.65363128 0.36125511 0.00000000)
		(0.67039106 0.36276800 0.00000000)
		(0.68715084 0.36479031 0.00000000)
		(0.70391061 0.36731452 0.00000000)
		(0.72067039 0.37033128 0.00000000)
		(0.73743017 0.37382938 0.00000000)
		(0.75418994 0.37779583 0.00000000)
		(0.77094972 0.38221592 0.00000000)
		(0.78770950 0.38707324 0.00000000)
		(0.80446927 0.39234975 0.00000000)
		(0.82122905 0.39802586 0.00000000)
		(0.83798883 0.40408051 0.00000000)
		(0.85474860 0.41049123 0.00000000)
		(0.87150838 0.41723421 0.00000000)
		(0.88826816 0.42428442 0.00000000)
		(0.90502793 0.43161570 0.00000000)
		(0.92178771 0.43920082 0.00000000)
		(0.93854749 0.44701164 0.00000000)
		(0.95530726 0.45501916 0.00000000)
		(0.97206704 0.46319364 0.00000000)
		(0.98882682 0.47150476 0.00000000)
		(1.00558659 0.47992165 0.00000000)
		(1.02234637 0.48841308 0.00000000)
		(1.03910615 0.49694752 0.00000000)
		(1.05586592 0.50549329 0.00000000)
		(1.07262570 0.51401866 0.00000000)
		(1.08938547 0.52249200 0.00000000)
		(1.10614525 0.53088185 0.00000000)
		(1.12290503 0.53915706 0.00000000)
		(1.13966480 0.54728691 0.00000000)
		(1.15642458 0.55524124 0.00000000)
		(1.17318436 0.56299050 0.00000000)
		(1.18994413 0.57050593 0.00000000)
		(1.20670391 0.57775965 0.00000000)
		(1.22346369 0.58472471 0.00000000)
		(1.24022346 0.59137526 0.00000000)
		(1.25698324 0.59768662 0.00000000)
		(1.27374302 0.60363536 0.00000000)
		(1.29050279 0.60919940 0.00000000)
		(1.30726257 0.61435807 0.00000000)
		(1.32402235 0.61909224 0.00000000)
		(1.34078212 0.62338433 0.00000000)
		(1.35754190 0.62721841 0.00000000)
		(1.37430168 0.63058024 0.00000000)
		(1.39106145 0.63345734 0.00000000)
		(1.40782123 0.63583904 0.00000000)
		(1.42458101 0.63771649 0.00000000)
		(1.44134078 0.63908272 0.00000000)
		(1.45810056 0.63993267 0.00000000)
		(1.47486034 0.64026317 0.00000000)
		(1.49162011 0.64007301 0.00000000)
		(1.50837989 0.63936288 0.00000000)
		(1.52513966 0.63813542 0.00000000)
		(1.54189944 0.63639520 0.00000000)
		(1.55865922 0.63414866 0.00000000)
		(1.57541899 0.63140415 0.00000000)
		(1.59217877 0.62817185 0.00000000)
		(1.60893855 0.62446377 0.00000000)
		(1.62569832 0.62029367 0.00000000)
		(1.64245810 0.61567703 0.00000000)
		(1.65921788 0.61063098 0.00000000)
		(1.67597765 0.60517426 0.00000000)
		(1.69273743 0.59932713 0.00000000)
		(1.70949721 0.59311128 0.00000000)
		(1.72625698 0.58654980 0.00000000)
		(1.74301676 0.57966703 0.00000000)
		(1.75977654 0.57248854 0.00000000)
		(1.77653631 0.56504096 0.00000000)
		(1.79329609 0.55735194 0.00000000)
		(1.81005587 0.54945003 0.00000000)
		(1.82681564 0.54136455 0.00000000)
		(1.84357542 0.53312553 0.00000000)
		(1.86033520 0.52476354 0.00000000)
		(1.87709497 0.51630963 0.00000000)
		(1.89385475 0.50779517 0.00000000)
		(1.91061453 0.49925177 0.00000000)
		(1.92737430 0.49071116 0.00000000)
		(1.94413408 0.48220502 0.00000000)
		(1.96089385 0.47376495 0.00000000)
		(1.97765363 0.46542225 0.00000000)
		(1.99441341 0.45720792 0.00000000)
		(2.01117318 0.44915243 0.00000000)
		(2.02793296 0.44128569 0.00000000)
		(2.04469274 0.43363691 0.00000000)
		(2.06145251 0.42623447 0.00000000)
		(2.07821229 0.41910586 0.00000000)
		(2.09497207 0.41227753 0.00000000)
		(2.11173184 0.40577484 0.00000000)
		(2.12849162 0.39962191 0.00000000)
		(2.14525140 0.39384161 0.00000000)
		(2.16201117 0.38845537 0.00000000)
		(2.17877095 0.38348319 0.00000000)
		(2.19553073 0.37894354 0.00000000)
		(2.21229050 0.37485325 0.00000000)
		(2.22905028 0.37122753 0.00000000)
		(2.24581006 0.36807982 0.00000000)
		(2.26256983 0.36542181 0.00000000)
		(2.27932961 0.36326336 0.00000000)
		(2.29608939 0.36161249 0.00000000)
		(2.31284916 0.36047534 0.00000000)
		(2.32960894 0.35985610 0.00000000)
		(2.34636872 0.35975710 0.00000000)
		(2.36312849 0.36017869 0.00000000)
		(2.37988827 0.36111931 0.00000000)
		(2.39664804 0.36257547 0.00000000)
		(2.41340782 0.36454176 0.00000000)
		(2.43016760 0.36701088 0.00000000)
		(2.44692737 0.36997367 0.00000000)
		(2.46368715 0.37341913 0.00000000)
		(2.48044693 0.37733447 0.00000000)
		(2.49720670 0.38170515 0.00000000)
		(2.51396648 0.38651496 0.00000000)
		(2.53072626 0.39174603 0.00000000)
		(2.54748603 0.39737895 0.00000000)