/*--------------------------------*- C++ -*----------------------------------*\\
/*--------------------------------*- C++ -*----------------------------------*\\
| =========                 |                                                 |
| \\\\      /  F ield         | OpenFOAM: The Open Source CFD Toolbox           |
|  \\\\    /   O peration     | Version:  v2012                                 |
|   \\\\  /    A nd           | Website:  www.openfoam.com                      |
|    \\\\/     M anipulation  |                                                 |
\\*---------------------------------------------------------------------------*/
FoamFile
{
    version     2.0;
    format      ascii;
    class       dictionary;
    object      blockMeshDict;
}
// * * * * * * * * * * * * * * * * * * * * * * * * * * * * * * * * * * * * * //

scale   0.01;

xmin -1;
xmax 5;
ymin 0;
ymax 0.5;
zmin 0;
zmax 0.1;

vertices
(
    (-1.00000000 -0.24990948 0.00000000)
    (4.00000000 -0.03939475 0.00000000)
    (4.00000000 0.46060525 0.00000000)
    (-1.00000000 0.25009052 0.00000000)
    (-1.00000000 -0.24990948 0.10000000)
    (4.00000000 -0.03939475 0.10000000)
    (4.00000000 0.46060525 0.10000000)
    (-1.00000000 0.25009052 0.10000000)
);

blocks
(
    hex (0 1 2 3 4 5 6 7) (200 20 1) simpleGrading (1 1 1)
);

edges
(
	polyLine 0 1
	(
		(-1.00000000 -0.24990948 0.00000000)
		(-0.98000000 -0.24990948 0.00000000)
		(-0.96000000 -0.24990948 0.00000000)
		(-0.94000000 -0.24990948 0.00000000)
		(-0.92000000 -0.24990948 0.00000000)
		(-0.90000000 -0.24990948 0.00000000)
		(-0.88000000 -0.24990948 0.00000000)
		(-0.86000000 -0.24990948 0.00000000)
		(-0.84000000 -0.24990948 0.00000000)
		(-0.82000000 -0.24990948 0.00000000)
		(-0.80000000 -0.24990948 0.00000000)
		(-0.78000000 -0.24990948 0.00000000)
		(-0.76000000 -0.24990948 0.00000000)
		(-0.74000000 -0.24990948 0.00000000)
		(-0.72000000 -0.24990948 0.00000000)
		(-0.70000000 -0.24990948 0.00000000)
		(-0.68000000 -0.24990948 0.00000000)
		(-0.66000000 -0.24990948 0.00000000)
		(-0.64000000 -0.24990948 0.00000000)
		(-0.62000000 -0.24990948 0.00000000)
		(-0.60000000 -0.24990948 0.00000000)
		(-0.58000000 -0.24990948 0.00000000)
		(-0.56000000 -0.24990948 0.00000000)
		(-0.54000000 -0.24990948 0.00000000)
		(-0.52000000 -0.24990948 0.00000000)
		(-0.50000000 -0.24990948 0.00000000)
		(-0.48000000 -0.24990948 0.00000000)
		(-0.46000000 -0.24990948 0.00000000)
		(-0.44000000 -0.24990948 0.00000000)
		(-0.42000000 -0.24990948 0.00000000)
		(-0.40000000 -0.24990948 0.00000000)
		(-0.38000000 -0.24990948 0.00000000)
		(-0.36000000 -0.24990948 0.00000000)
		(-0.34000000 -0.24990948 0.00000000)
		(-0.32000000 -0.24990948 0.00000000)
		(-0.30000000 -0.24990948 0.00000000)
		(-0.28000000 -0.24990948 0.00000000)
		(-0.26000000 -0.24990948 0.00000000)
		(-0.24000000 -0.24990948 0.00000000)
		(-0.22000000 -0.24990948 0.00000000)
		(-0.20000000 -0.24990948 0.00000000)
		(-0.18000000 -0.24990948 0.00000000)
		(-0.16000000 -0.24990948 0.00000000)
		(-0.14000000 -0.24990948 0.00000000)
		(-0.12000000 -0.24990948 0.00000000)
		(-0.10000000 -0.24990948 0.00000000)
		(-0.08162011 -0.24958830 0.00000000)
		(-0.06324022 -0.24862475 0.00000000)
		(-0.04486034 -0.24701884 0.00000000)
		(-0.02648045 -0.24477057 0.00000000)
		(-0.00810056 -0.24187993 0.00000000)
		(0.01027933 -0.23834693 0.00000000)
		(0.02865922 -0.23417156 0.00000000)
		(0.04703911 -0.22935383 0.00000000)
		(0.06541899 -0.22389373 0.00000000)
		(0.08379888 -0.21779127 0.00000000)
		(0.10055866 -0.20484193 0.00000000)
		(0.11731844 -0.18995629 0.00000000)
		(0.13407821 -0.17327506 0.00000000)
		(0.15083799 -0.15495593 0.00000000)
		(0.16759777 -0.13517205 0.00000000)
		(0.18435754 -0.11411043 0.00000000)
		(0.20111732 -0.09197017 0.00000000)
		(0.21787709 -0.06896055 0.00000000)
		(0.23463687 -0.04529907 0.00000000)
		(0.25139665 -0.02120940 0.00000000)
		(0.26815642 0.00308076 0.00000000)
		(0.28491620 0.02734181 0.00000000)
		(0.30167598 0.05134439 0.00000000)
		(0.31843575 0.07486164 0.00000000)
		(0.33519553 0.09767125 0.00000000)
		(0.35195531 0.11955760 0.00000000)
		(0.36871508 0.14031382 0.00000000)
		(0.38547486 0.15974370 0.00000000)
		(0.40223464 0.17766358 0.00000000)
		(0.41899441 0.19390407 0.00000000)
		(0.43575419 0.20831166 0.00000000)
		(0.45251397 0.22075014 0.00000000)
		(0.46927374 0.23110196 0.00000000)
		(0.48603352 0.23926925 0.00000000)
		(0.50279330 0.24517481 0.00000000)
		(0.51955307 0.24876282 0.00000000)
		(0.53631285 0.24999936 0.00000000)
		(0.55307263 0.24887275 0.00000000)
		(0.56983240 0.24539363 0.00000000)
		(0.58659218 0.23959489 0.00000000)
		(0.60335196 0.23153134 0.00000000)
		(0.62011173 0.22127922 0.00000000)
		(0.63687151 0.20893541 0.00000000)
		(0.65363128 0.19461662 0.00000000)
		(0.67039106 0.17845818 0.00000000)
		(0.68715084 0.16061284 0.00000000)
		(0.70391061 0.14124928 0.00000000)
		(0.72067039 0.12055055 0.00000000)
		(0.73743017 0.09871229 0.00000000)
		(0.75418994 0.07594094 0.00000000)
		(0.77094972 0.05245175 0.00000000)
		(0.78770950 0.02846674 0.00000000)
		(0.80446927 0.00421266 0.00000000)
		(0.82122905 -0.02008125 0.00000000)
		(0.83798883 -0.04418534 0.00000000)
		(0.85474860 -0.06787176 0.00000000)
		(0.87150838 -0.09091661 0.00000000)
		(0.88826816 -0.11310205 0.00000000)
		(0.90502793 -0.13421839 0.00000000)
		(0.92178771 -0.15406600 0.00000000)
		(0.93854749 -0.17245729 0.00000000)
		(0.95530726 -0.18921839 0.00000000)
		(0.97206704 -0.20419088 0.00000000)
		(0.98882682 -0.21723323 0.00000000)
		(1.00558659 -0.22822215 0.00000000)
		(1.02234637 -0.23705376 0.00000000)
		(1.03910615 -0.24364459 0.00000000)
		(1.05586592 -0.24793233 0.00000000)
		(1.07262570 -0.24987646 0.00000000)
		(1.08938547 -0.24945859 0.00000000)
		(1.10614525 -0.24668268 0.00000000)
		(1.12290503 -0.24157496 0.00000000)
		(1.13966480 -0.23418372 0.00000000)
		(1.15642458 -0.22457883 0.00000000)
		(1.17318436 -0.21285107 0.00000000)
		(1.18994413 -0.19911130 0.00000000)
		(1.20670391 -0.18348941 0.00000000)
		(1.22346369 -0.16613305 0.00000000)
		(1.24022346 -0.14720630 0.00000000)
		(1.25698324 -0.12688806 0.00000000)
		(1.27374302 -0.10537039 0.00000000)
		(1.29050279 -0.08285669 0.00000000)
		(1.30726257 -0.05955978 0.00000000)
		(1.32402235 -0.03569986 0.00000000)
		(1.34078212 -0.01150249 0.00000000)
		(1.35754190 0.01280360 0.00000000)
		(1.37430168 0.03698867 0.00000000)
		(1.39106145 0.06082410 0.00000000)
		(1.40782123 0.08408458 0.00000000)
		(1.42458101 0.10655024 0.00000000)
		(1.44134078 0.12800872 0.00000000)
		(1.45810056 0.14825718 0.00000000)
		(1.47486034 0.16710421 0.00000000)
		(1.49162011 0.18437167 0.00000000)
		(1.50837989 0.19989632 0.00000000)
		(1.52513966 0.21353143 0.00000000)
		(1.54189944 0.22514810 0.00000000)
		(1.55865922 0.23463652 0.00000000)
		(1.57541899 0.24190701 0.00000000)
		(1.59217877 0.24689084 0.00000000)
		(1.60893855 0.24954089 0.00000000)
		(1.62569832 0.24983212 0.00000000)
		(1.64245810 0.24776178 0.00000000)
		(1.65921788 0.24334943 0.00000000)
		(1.67597765 0.23663679 0.00000000)
		(1.69273743 0.22768730 0.00000000)
		(1.70949721 0.21658556 0.00000000)
		(1.72625698 0.20343652 0.00000000)
		(1.74301676 0.18836447 0.00000000)
		(1.75977654 0.17151187 0.00000000)
		(1.77653631 0.15303803 0.00000000)
		(1.79329609 0.13311757 0.00000000)
		(1.81005587 0.11193881 0.00000000)
		(1.82681564 0.08970192 0.00000000)
		(1.84357542 0.06661711 0.00000000)
		(1.86033520 0.04290260 0.00000000)
		(1.87709497 0.01878254 0.00000000)
		(1.89385475 -0.00551506 0.00000000)
		(1.91061453 -0.02976053 0.00000000)
		(1.92737430 -0.05372468 0.00000000)
		(1.94413408 -0.07718100 0.00000000)
		(1.96089385 -0.09990775 0.00000000)
		(1.97765363 -0.12169010 0.00000000)
		(1.99441341 -0.14232217 0.00000000)
		(2.01117318 -0.16160891 0.00000000)
		(2.02793296 -0.17936802 0.00000000)
		(2.04469274 -0.19543163 0.00000000)
		(2.06145251 -0.20964789 0.00000000)
		(2.07821229 -0.22188242 0.00000000)
		(2.09497207 -0.23201958 0.00000000)
		(2.11173184 -0.23996354 0.00000000)
		(2.12849162 -0.24563920 0.00000000)
		(2.14525140 -0.24899293 0.00000000)
		(2.16201117 -0.24999302 0.00000000)
		(2.17877095 -0.24863001 0.00000000)
		(2.19553073 -0.24491678 0.00000000)
		(2.21229050 -0.23888845 0.00000000)
		(2.22905028 -0.23060198 0.00000000)
		(2.24581006 -0.22013572 0.00000000)
		(2.26256983 -0.20758860 0.00000000)
		(2.27932961 -0.19307921 0.00000000)
		(2.29608939 -0.17674471 0.00000000)
		(2.31284916 -0.15873950 0.00000000)
		(2.32960894 -0.13923379 0.00000000)
		(2.34636872 -0.11841195 0.00000000)
		(2.36312849 -0.09647081 0.00000000)
		(2.37988827 -0.07361775 0.00000000)
		(2.39664804 -0.05006882 0.00000000)
		(2.41340782 -0.02604660 0.00000000)
		(2.43016760 -0.00177818 0.00000000)
		(2.44692737 0.02250706 0.00000000)
		(2.46368715 0.04657954 0.00000000)
		(2.48044693 0.07021172 0.00000000)
		(2.49720670 0.09318022 0.00000000)
		(2.51396648 0.11526792 0.00000000)
		(2.53072626 0.13626603 0.00000000)
		(2.54748603 0.15597606 0.00000000)
		(2.56424581 0.17421171 0.00000000)
		(2.58100559 0.19080060 0.00000000)
		(2.59776536 0.20558591 0.00000000)
		(2.61452514 0.21842790 0.00000000)
		(2.63128492 0.22920516 0.00000000)
		(2.64804469 0.23781583 0.00000000)
		(2.66480447 0.24417851 0.00000000)
		(2.68156425 0.24823305 0.00000000)
		(2.69832402 0.24994114 0.00000000)
		(2.71508380 0.24928662 0.00000000)
		(2.73184358 0.24627568 0.00000000)
		(2.74860335 0.24093679 0.00000000)
		(2.76536313 0.23332040 0.00000000)
		(2.78212291 0.22349852 0.00000000)
		(2.79888268 0.21156399 0.00000000)
		(2.81564246 0.19762962 0.00000000)
		(2.83240223 0.18182712 0.00000000)
		(2.84916201 0.16430588 0.00000000)
		(2.86592179 0.14523151 0.00000000)
		(2.88268156 0.12478432 0.00000000)
		(2.89944134 0.10315758 0.00000000)
		(2.91620112 0.08055574 0.00000000)
		(2.93296089 0.05719243 0.00000000)
		(2.95166480 0.03884086 0.00000000)
		(2.97036872 0.02242104 0.00000000)
		(2.98907263 0.00793297 0.00000000)
		(3.00777654 -0.00462337 0.00000000)
		(3.02648045 -0.01524796 0.00000000)
		(3.04518436 -0.02394080 0.00000000)
		(3.06388827 -0.03070191 0.00000000)
		(3.08259218 -0.03553126 0.00000000)
		(3.10129609 -0.03842888 0.00000000)
		(3.12000000 -0.03939475 0.00000000)
		(3.14000000 -0.03939475 0.00000000)
		(3.16000000 -0.03939475 0.00000000)
		(3.18000000 -0.03939475 0.00000000)
		(3.20000000 -0.03939475 0.00000000)
		(3.22000000 -0.03939475 0.00000000)
		(3.24000000 -0.03939475 0.00000000)
		(3.26000000 -0.03939475 0.00000000)
		(3.28000000 -0.03939475 0.00000000)
		(3.30000000 -0.03939475 0.00000000)
		(3.32000000 -0.03939475 0.00000000)
		(3.34000000 -0.03939475 0.00000000)
		(3.36000000 -0.03939475 0.00000000)
		(3.38000000 -0.03939475 0.00000000)
		(3.40000000 -0.03939475 0.00000000)
		(3.42000000 -0.03939475 0.00000000)
		(3.44000000 -0.03939475 0.00000000)
		(3.46000000 -0.03939475 0.00000000)
		(3.48000000 -0.03939475 0.00000000)
		(3.50000000 -0.03939475 0.00000000)
		(3.52000000 -0.03939475 0.00000000)
		(3.54000000 -0.03939475 0.00000000)
		(3.56000000 -0.03939475 0.00000000)
		(3.58000000 -0.03939475 0.00000000)
		(3.60000000 -0.03939475 0.00000000)
		(3.62000000 -0.03939475 0.00000000)
		(3.64000000 -0.03939475 0.00000000)
		(3.66000000 -0.03939475 0.00000000)
		(3.68000000 -0.03939475 0.00000000)
		(3.70000000 -0.03939475 0.00000000)
		(3.72000000 -0.03939475 0.00000000)
		(3.74000000 -0.03939475 0.00000000)
		(3.76000000 -0.03939475 0.00000000)
		(3.78000000 -0.03939475 0.00000000)
		(3.80000000 -0.03939475 0.00000000)
		(3.82000000 -0.03939475 0.00000000)
		(3.84000000 -0.03939475 0.00000000)
		(3.86000000 -0.03939475 0.00000000)
		(3.88000000 -0.03939475 0.00000000)
		(3.90000000 -0.03939475 0.00000000)
		(3.92000000 -0.03939475 0.00000000)
		(3.94000000 -0.03939475 0.00000000)
		(3.96000000 -0.03939475 0.00000000)
		(3.98000000 -0.03939475 0.00000000)
		(4.00000000 -0.03939475 0.00000000)
	)
	polyLine 4 5
	(
		(-1.00000000 -0.24990948 0.10000000)
		(-0.98000000 -0.24990948 0.10000000)
		(-0.96000000 -0.24990948 0.10000000)
		(-0.94000000 -0.24990948 0.10000000)
		(-0.92000000 -0.24990948 0.10000000)
		(-0.90000000 -0.24990948 0.10000000)
		(-0.88000000 -0.24990948 0.10000000)
		(-0.86000000 -0.24990948 0.10000000)
		(-0.84000000 -0.24990948 0.10000000)
		(-0.82000000 -0.24990948 0.10000000)
		(-0.80000000 -0.24990948 0.10000000)
		(-0.78000000 -0.24990948 0.10000000)
		(-0.76000000 -0.24990948 0.10000000)
		(-0.74000000 -0.24990948 0.10000000)
		(-0.72000000 -0.24990948 0.10000000)
		(-0.70000000 -0.24990948 0.10000000)
		(-0.68000000 -0.24990948 0.10000000)
		(-0.66000000 -0.24990948 0.10000000)
		(-0.64000000 -0.24990948 0.10000000)
		(-0.62000000 -0.24990948 0.10000000)
		(-0.60000000 -0.24990948 0.10000000)
		(-0.58000000 -0.24990948 0.10000000)
		(-0.56000000 -0.24990948 0.10000000)
		(-0.54000000 -0.24990948 0.10000000)
		(-0.52000000 -0.24990948 0.10000000)
		(-0.50000000 -0.24990948 0.10000000)
		(-0.48000000 -0.24990948 0.10000000)
		(-0.46000000 -0.24990948 0.10000000)
		(-0.44000000 -0.24990948 0.10000000)
		(-0.42000000 -0.24990948 0.10000000)
		(-0.40000000 -0.24990948 0.10000000)
		(-0.38000000 -0.24990948 0.10000000)
		(-0.36000000 -0.24990948 0.10000000)
		(-0.34000000 -0.24990948 0.10000000)
		(-0.32000000 -0.24990948 0.10000000)
		(-0.30000000 -0.24990948 0.10000000)
		(-0.28000000 -0.24990948 0.10000000)
		(-0.26000000 -0.24990948 0.10000000)
		(-0.24000000 -0.24990948 0.10000000)
		(-0.22000000 -0.24990948 0.10000000)
		(-0.20000000 -0.24990948 0.10000000)
		(-0.18000000 -0.24990948 0.10000000)
		(-0.16000000 -0.24990948 0.10000000)
		(-0.14000000 -0.24990948 0.10000000)
		(-0.12000000 -0.24990948 0.10000000)
		(-0.10000000 -0.24990948 0.10000000)
		(-0.08162011 -0.24958830 0.10000000)
		(-0.06324022 -0.24862475 0.10000000)
		(-0.04486034 -0.24701884 0.10000000)
		(-0.02648045 -0.24477057 0.10000000)
		(-0.00810056 -0.24187993 0.10000000)
		(0.01027933 -0.23834693 0.10000000)
		(0.02865922 -0.23417156 0.10000000)
		(0.04703911 -0.22935383 0.10000000)
		(0.06541899 -0.22389373 0.10000000)
		(0.08379888 -0.21779127 0.10000000)
		(0.10055866 -0.20484193 0.10000000)
		(0.11731844 -0.18995629 0.10000000)
		(0.13407821 -0.17327506 0.10000000)
		(0.15083799 -0.15495593 0.10000000)
		(0.16759777 -0.13517205 0.10000000)
		(0.18435754 -0.11411043 0.10000000)
		(0.20111732 -0.09197017 0.10000000)
		(0.21787709 -0.06896055 0.10000000)
		(0.23463687 -0.04529907 0.10000000)
		(0.25139665 -0.02120940 0.10000000)
		(0.26815642 0.00308076 0.10000000)
		(0.28491620 0.02734181 0.10000000)
		(0.30167598 0.05134439 0.10000000)
		(0.31843575 0.07486164 0.10000000)
		(0.33519553 0.09767125 0.10000000)
		(0.35195531 0.11955760 0.10000000)
		(0.36871508 0.14031382 0.10000000)
		(0.38547486 0.15974370 0.10000000)
		(0.40223464 0.17766358 0.10000000)
		(0.41899441 0.19390407 0.10000000)
		(0.43575419 0.20831166 0.10000000)
		(0.45251397 0.22075014 0.10000000)
		(0.46927374 0.23110196 0.10000000)
		(0.48603352 0.23926925 0.10000000)
		(0.50279330 0.24517481 0.10000000)
		(0.51955307 0.24876282 0.10000000)
		(0.53631285 0.24999936 0.10000000)
		(0.55307263 0.24887275 0.10000000)
		(0.56983240 0.24539363 0.10000000)
		(0.58659218 0.23959489 0.10000000)
		(0.60335196 0.23153134 0.10000000)
		(0.62011173 0.22127922 0.10000000)
		(0.63687151 0.20893541 0.10000000)
		(0.65363128 0.19461662 0.10000000)
		(0.67039106 0.17845818 0.10000000)
		(0.68715084 0.16061284 0.10000000)
		(0.70391061 0.14124928 0.10000000)
		(0.72067039 0.12055055 0.10000000)
		(0.73743017 0.09871229 0.10000000)
		(0.75418994 0.07594094 0.10000000)
		(0.77094972 0.05245175 0.10000000)
		(0.78770950 0.02846674 0.10000000)
		(0.80446927 0.00421266 0.10000000)
		(0.82122905 -0.02008125 0.10000000)
		(0.83798883 -0.04418534 0.10000000)
		(0.85474860 -0.06787176 0.10000000)
		(0.87150838 -0.09091661 0.10000000)
		(0.88826816 -0.11310205 0.10000000)
		(0.90502793 -0.13421839 0.10000000)
		(0.92178771 -0.15406600 0.10000000)
		(0.93854749 -0.17245729 0.10000000)
		(0.95530726 -0.18921839 0.10000000)
		(0.97206704 -0.20419088 0.10000000)
		(0.98882682 -0.21723323 0.10000000)
		(1.00558659 -0.22822215 0.10000000)
		(1.02234637 -0.23705376 0.10000000)
		(1.03910615 -0.24364459 0.10000000)
		(1.05586592 -0.24793233 0.10000000)
		(1.07262570 -0.24987646 0.10000000)
		(1.08938547 -0.24945859 0.10000000)
		(1.10614525 -0.24668268 0.10000000)
		(1.12290503 -0.24157496 0.10000000)
		(1.13966480 -0.23418372 0.10000000)
		(1.15642458 -0.22457883 0.10000000)
		(1.17318436 -0.21285107 0.10000000)
		(1.18994413 -0.19911130 0.10000000)
		(1.20670391 -0.18348941 0.10000000)
		(1.22346369 -0.16613305 0.10000000)
		(1.24022346 -0.14720630 0.10000000)
		(1.25698324 -0.12688806 0.10000000)
		(1.27374302 -0.10537039 0.10000000)
		(1.29050279 -0.08285669 0.10000000)
		(1.30726257 -0.05955978 0.10000000)
		(1.32402235 -0.03569986 0.10000000)
		(1.34078212 -0.01150249 0.10000000)
		(1.35754190 0.01280360 0.10000000)
		(1.37430168 0.03698867 0.10000000)
		(1.39106145 0.06082410 0.10000000)
		(1.40782123 0.08408458 0.10000000)
		(1.42458101 0.10655024 0.10000000)
		(1.44134078 0.12800872 0.10000000)
		(1.45810056 0.14825718 0.10000000)
		(1.47486034 0.16710421 0.10000000)
		(1.49162011 0.18437167 0.10000000)
		(1.50837989 0.19989632 0.10000000)
		(1.52513966 0.21353143 0.10000000)
		(1.54189944 0.22514810 0.10000000)
		(1.55865922 0.23463652 0.10000000)
		(1.57541899 0.24190701 0.10000000)
		(1.59217877 0.24689084 0.10000000)
		(1.60893855 0.24954089 0.10000000)
		(1.62569832 0.24983212 0.10000000)
		(1.64245810 0.24776178 0.10000000)
		(1.65921788 0.24334943 0.10000000)
		(1.67597765 0.23663679 0.10000000)
		(1.69273743 0.22768730 0.10000000)
		(1.70949721 0.21658556 0.10000000)
		(1.72625698 0.20343652 0.10000000)
		(1.74301676 0.18836447 0.10000000)
		(1.75977654 0.17151187 0.10000000)
		(1.77653631 0.15303803 0.10000000)
		(1.79329609 0.13311757 0.10000000)
		(1.81005587 0.11193881 0.10000000)
		(1.82681564 0.08970192 0.10000000)
		(1.84357542 0.06661711 0.10000000)
		(1.86033520 0.04290260 0.10000000)
		(1.87709497 0.01878254 0.10000000)
		(1.89385475 -0.00551506 0.10000000)
		(1.91061453 -0.02976053 0.10000000)
		(1.92737430 -0.05372468 0.10000000)
		(1.94413408 -0.07718100 0.10000000)
		(1.96089385 -0.09990775 0.10000000)
		(1.97765363 -0.12169010 0.10000000)
		(1.99441341 -0.14232217 0.10000000)
		(2.01117318 -0.16160891 0.10000000)
		(2.02793296 -0.17936802 0.10000000)
		(2.04469274 -0.19543163 0.10000000)
		(2.06145251 -0.20964789 0.10000000)
		(2.07821229 -0.22188242 0.10000000)
		(2.09497207 -0.23201958 0.10000000)
		(2.11173184 -0.23996354 0.10000000)
		(2.12849162 -0.24563920 0.10000000)
		(2.14525140 -0.24899293 0.10000000)
		(2.16201117 -0.24999302 0.10000000)
		(2.17877095 -0.24863001 0.10000000)
		(2.19553073 -0.24491678 0.10000000)
		(2.21229050 -0.23888845 0.10000000)
		(2.22905028 -0.23060198 0.10000000)
		(2.24581006 -0.22013572 0.10000000)
		(2.26256983 -0.20758860 0.10000000)
		(2.27932961 -0.19307921 0.10000000)
		(2.29608939 -0.17674471 0.10000000)
		(2.31284916 -0.15873950 0.10000000)
		(2.32960894 -0.13923379 0.10000000)
		(2.34636872 -0.11841195 0.10000000)
		(2.36312849 -0.09647081 0.10000000)
		(2.37988827 -0.07361775 0.10000000)
		(2.39664804 -0.05006882 0.10000000)
		(2.41340782 -0.02604660 0.10000000)
		(2.43016760 -0.00177818 0.10000000)
		(2.44692737 0.02250706 0.10000000)
		(2.46368715 0.04657954 0.10000000)
		(2.48044693 0.07021172 0.10000000)
		(2.49720670 0.09318022 0.10000000)
		(2.51396648 0.11526792 0.10000000)
		(2.53072626 0.13626603 0.10000000)
		(2.54748603 0.15597606 0.10000000)
		(2.56424581 0.17421171 0.10000000)
		(2.58100559 0.19080060 0.10000000)
		(2.59776536 0.20558591 0.10000000)
		(2.61452514 0.21842790 0.10000000)
		(2.63128492 0.22920516 0.10000000)
		(2.64804469 0.23781583 0.10000000)
		(2.66480447 0.24417851 0.10000000)
		(2.68156425 0.24823305 0.10000000)
		(2.69832402 0.24994114 0.10000000)
		(2.71508380 0.24928662 0.10000000)
		(2.73184358 0.24627568 0.10000000)
		(2.74860335 0.24093679 0.10000000)
		(2.76536313 0.23332040 0.10000000)
		(2.78212291 0.22349852 0.10000000)
		(2.79888268 0.21156399 0.10000000)
		(2.81564246 0.19762962 0.10000000)
		(2.83240223 0.18182712 0.10000000)
		(2.84916201 0.16430588 0.10000000)
		(2.86592179 0.14523151 0.10000000)
		(2.88268156 0.12478432 0.10000000)
		(2.89944134 0.10315758 0.10000000)
		(2.91620112 0.08055574 0.10000000)
		(2.93296089 0.05719243 0.10000000)
		(2.95166480 0.03884086 0.10000000)
		(2.97036872 0.02242104 0.10000000)
		(2.98907263 0.00793297 0.10000000)
		(3.00777654 -0.00462337 0.10000000)
		(3.02648045 -0.01524796 0.10000000)
		(3.04518436 -0.02394080 0.10000000)
		(3.06388827 -0.03070191 0.10000000)
		(3.08259218 -0.03553126 0.10000000)
		(3.10129609 -0.03842888 0.10000000)
		(3.12000000 -0.03939475 0.10000000)
		(3.14000000 -0.03939475 0.10000000)
		(3.16000000 -0.03939475 0.10000000)
		(3.18000000 -0.03939475 0.10000000)
		(3.20000000 -0.03939475 0.10000000)
		(3.22000000 -0.03939475 0.10000000)
		(3.24000000 -0.03939475 0.10000000)
		(3.26000000 -0.03939475 0.10000000)
		(3.28000000 -0.03939475 0.10000000)
		(3.30000000 -0.03939475 0.10000000)
		(3.32000000 -0.03939475 0.10000000)
		(3.34000000 -0.03939475 0.10000000)
		(3.36000000 -0.03939475 0.10000000)
		(3.38000000 -0.03939475 0.10000000)
		(3.40000000 -0.03939475 0.10000000)
		(3.42000000 -0.03939475 0.10000000)
		(3.44000000 -0.03939475 0.10000000)
		(3.46000000 -0.03939475 0.10000000)
		(3.48000000 -0.03939475 0.10000000)
		(3.50000000 -0.03939475 0.10000000)
		(3.52000000 -0.03939475 0.10000000)
		(3.54000000 -0.03939475 0.10000000)
		(3.56000000 -0.03939475 0.10000000)
		(3.58000000 -0.03939475 0.10000000)
		(3.60000000 -0.03939475 0.10000000)
		(3.62000000 -0.03939475 0.10000000)
		(3.64000000 -0.03939475 0.10000000)
		(3.66000000 -0.03939475 0.10000000)
		(3.68000000 -0.03939475 0.10000000)
		(3.70000000 -0.03939475 0.10000000)
		(3.72000000 -0.03939475 0.10000000)
		(3.74000000 -0.03939475 0.10000000)
		(3.76000000 -0.03939475 0.10000000)
		(3.78000000 -0.03939475 0.10000000)
		(3.80000000 -0.03939475 0.10000000)
		(3.82000000 -0.03939475 0.10000000)
		(3.84000000 -0.03939475 0.10000000)
		(3.86000000 -0.03939475 0.10000000)
		(3.88000000 -0.03939475 0.10000000)
		(3.90000000 -0.03939475 0.10000000)
		(3.92000000 -0.03939475 0.10000000)
		(3.94000000 -0.03939475 0.10000000)
		(3.96000000 -0.03939475 0.10000000)
		(3.98000000 -0.03939475 0.10000000)
		(4.00000000 -0.03939475 0.10000000)
	)
	polyLine 3 2
	(
		(-1.00000000 0.25009052 0.00000000)
		(-0.98000000 0.25251635 0.00000000)
		(-0.96000000 0.25494219 0.00000000)
		(-0.94000000 0.25736802 0.00000000)
		(-0.92000000 0.25979386 0.00000000)
		(-0.90000000 0.26221969 0.00000000)
		(-0.88000000 0.26464553 0.00000000)
		(-0.86000000 0.26707136 0.00000000)
		(-0.84000000 0.26949720 0.00000000)
		(-0.82000000 0.27192303 0.00000000)
		(-0.80000000 0.27434887 0.00000000)
		(-0.78000000 0.27677470 0.00000000)
		(-0.76000000 0.27920053 0.00000000)
		(-0.74000000 0.28162637 0.00000000)
		(-0.72000000 0.28405220 0.00000000)
		(-0.70000000 0.28647804 0.00000000)
		(-0.68000000 0.28890387 0.00000000)
		(-0.66000000 0.29132971 0.00000000)
		(-0.64000000 0.29375554 0.00000000)
		(-0.62000000 0.29618138 0.00000000)
		(-0.60000000 0.29860721 0.00000000)
		(-0.58000000 0.30103305 0.00000000)
		(-0.56000000 0.30345888 0.00000000)
		(-0.54000000 0.30588472 0.00000000)
		(-0.52000000 0.30831055 0.00000000)
		(-0.50000000 0.31073639 0.00000000)
		(-0.48000000 0.31316222 0.00000000)
		(-0.46000000 0.31558806 0.00000000)
		(-0.44000000 0.31801389 0.00000000)
		(-0.42000000 0.32043973 0.00000000)
		(-0.40000000 0.32286556 0.00000000)
		(-0.38000000 0.32529139 0.00000000)
		(-0.36000000 0.32771723 0.00000000)
		(-0.34000000 0.33014306 0.00000000)
		(-0.32000000 0.33256890 0.00000000)
		(-0.30000000 0.33499473 0.00000000)
		(-0.28000000 0.33742057 0.00000000)
		(-0.26000000 0.33984640 0.00000000)
		(-0.24000000 0.34227224 0.00000000)
		(-0.22000000 0.34469807 0.00000000)
		(-0.20000000 0.34712391 0.00000000)
		(-0.18000000 0.34954974 0.00000000)
		(-0.16000000 0.35197558 0.00000000)
		(-0.14000000 0.35440141 0.00000000)
		(-0.12000000 0.35682725 0.00000000)
		(-0.10000000 0.35925308 0.00000000)
		(-0.08162011 0.36083563 0.00000000)
		(-0.06324022 0.36265640 0.00000000)
		(-0.04486034 0.36471537 0.00000000)
		(-0.02648045 0.36701255 0.00000000)
		(-0.00810056 0.36954794 0.00000000)
		(0.01027933 0.37232155 0.00000000)
		(0.02865922 0.37533336 0.00000000)
		(0.04703911 0.37858338 0.00000000)
		(0.06541899 0.38207162 0.00000000)
		(0.08379888 0.38579806 0.00000000)
		(0.10055866 0.39258823 0.00000000)
		(0.11731844 0.40039372 0.00000000)
		(0.13407821 0.40914076 0.00000000)
		(0.15083799 0.41874666 0.00000000)
		(0.16759777 0.42912062 0.00000000)
		(0.18435754 0.44016458 0.00000000)
		(0.20111732 0.45177413 0.00000000)
		(0.21787709 0.46383956 0.00000000)
		(0.23463687 0.47624679 0.00000000)
		(0.25139665 0.48887855 0.00000000)
		(0.26815642 0.50161544 0.00000000)
		(0.28491620 0.51433706 0.00000000)
		(0.30167598 0.52692316 0.00000000)
		(0.31843575 0.53925476 0.00000000)
		(0.33519553 0.55121530 0.00000000)
		(0.35195531 0.56269172 0.00000000)
		(0.36871508 0.57357554 0.00000000)
		(0.38547486 0.58376388 0.00000000)
		(0.40223464 0.59316042 0.00000000)
		(0.41899441 0.60167635 0.00000000)
		(0.43575419 0.60923117 0.00000000)
		(0.45251397 0.61575347 0.00000000)
		(0.46927374 0.62118159 0.00000000)
		(0.48603352 0.62546422 0.00000000)
		(0.50279330 0.62856089 0.00000000)
		(0.51955307 0.63044231 0.00000000)
		(0.53631285 0.63109071 0.00000000)
		(0.55307263 0.63049995 0.00000000)
		(0.56983240 0.62867563 0.00000000)
		(0.58659218 0.62563498 0.00000000)
		(0.60335196 0.62140674 0.00000000)
		(0.62011173 0.61603089 0.00000000)
		(0.63687151 0.60955825 0.00000000)
		(0.65363128 0.60204998 0.00000000)
		(0.67039106 0.59357708 0.00000000)
		(0.68715084 0.58421962 0.00000000)
		(0.70391061 0.57406606 0.00000000)
		(0.72067039 0.56321239 0.00000000)
		(0.73743017 0.55176119 0.00000000)
		(0.75418994 0.53982071 0.00000000)
		(0.77094972 0.52750382 0.00000000)
		(0.78770950 0.51492694 0.00000000)
		(0.80446927 0.50220897 0.00000000)
		(0.82122905 0.48947011 0.00000000)
		(0.83798883 0.47683079 0.00000000)
		(0.85474860 0.46441048 0.00000000)
		(0.87150838 0.45232659 0.00000000)
		(0.88826816 0.44069333 0.00000000)
		(0.90502793 0.42962068 0.00000000)
		(0.92178771 0.41921331 0.00000000)
		(0.93854749 0.40956958 0.00000000)
		(0.95530726 0.40078065 0.00000000)
		(0.97206704 0.39292961 0.00000000)
		(0.98882682 0.38609067 0.00000000)
		(1.00558659 0.38032848 0.00000000)
		(1.02234637 0.37569750 0.00000000)
		(1.03910615 0.37224150 0.00000000)
		(1.05586592 0.36999316 0.00000000)
		(1.07262570 0.36897373 0.00000000)
		(1.08938547 0.36919285 0.00000000)
		(1.10614525 0.37064844 0.00000000)
		(1.12290503 0.37332674 0.00000000)
		(1.13966480 0.37720244 0.00000000)
		(1.15642458 0.38223891 0.00000000)
		(1.17318436 0.38838852 0.00000000)
		(1.18994413 0.39559317 0.00000000)
		(1.20670391 0.40378473 0.00000000)
		(1.22346369 0.41288578 0.00000000)
		(1.24022346 0.42281029 0.00000000)
		(1.25698324 0.43346445 0.00000000)
		(1.27374302 0.44474754 0.00000000)
		(1.29050279 0.45655292 0.00000000)
		(1.30726257 0.46876899 0.00000000)
		(1.32402235 0.48128027 0.00000000)
		(1.34078212 0.49396850 0.00000000)
		(1.35754190 0.50671375 0.00000000)
		(1.37430168 0.51939554 0.00000000)
		(1.39106145 0.53189398 0.00000000)
		(1.40782123 0.54409094 0.00000000)
		(1.42458101 0.55587113 0.00000000)
		(1.44134078 0.56712319 0.00000000)
		(1.45810056 0.57774075 0.00000000)
		(1.47486034 0.58762346 0.00000000)
		(1.49162011 0.59667790 0.00000000)
		(1.50837989 0.60481847 0.00000000)
		(1.52513966 0.61196823 0.00000000)
		(1.54189944 0.61805960 0.00000000)
		(1.55865922 0.62303499 0.00000000)
		(1.57541899 0.62684737 0.00000000)
		(1.59217877 0.62946071 0.00000000)
		(1.60893855 0.63085030 0.00000000)
		(1.62569832 0.63100302 0.00000000)
		(1.64245810 0.62991740 0.00000000)
		(1.65921788 0.62760372 0.00000000)
		(1.67597765 0.62408386 0.00000000)
		(1.69273743 0.61939106 0.00000000)
		(1.70949721 0.61356971 0.00000000)
		(1.72625698 0.60667483 0.00000000)
		(1.74301676 0.59877158 0.00000000)
		(1.75977654 0.58993468 0.00000000)
		(1.77653631 0.58024766 0.00000000)
		(1.79329609 0.56980209 0.00000000)
		(1.81005587 0.55869670 0.00000000)
		(1.82681564 0.54703647 0.00000000)
		(1.84357542 0.53493163 0.00000000)
		(1.86033520 0.52249659 0.00000000)
		(1.87709497 0.50984889 0.00000000)
		(1.89385475 0.49710810 0.00000000)
		(1.91061453 0.48439464 0.00000000)
		(1.92737430 0.47182870 0.00000000)
		(1.94413408 0.45952905 0.00000000)
		(1.96089385 0.44761196 0.00000000)
		(1.97765363 0.43619007 0.00000000)
		(1.99441341 0.42537135 0.00000000)
		(2.01117318 0.41525808 0.00000000)
		(2.02793296 0.40594584 0.00000000)
		(2.04469274 0.39752266 0.00000000)
		(2.06145251 0.39006816 0.00000000)
		(2.07821229 0.38365281 0.00000000)
		(2.09497207 0.37833724 0.00000000)
		(2.11173184 0.37417172 0.00000000)
		(2.12849162 0.37119560 0.00000000)
		(2.14525140 0.36943703 0.00000000)
		(2.16201117 0.36891262 0.00000000)
		(2.17877095 0.36962733 0.00000000)
		(2.19553073 0.37157441 0.00000000)
		(2.21229050 0.37473545 0.00000000)
		(2.22905028 0.37908058 0.00000000)
		(2.24581006 0.38456871 0.00000000)
		(2.26256983 0.39114798 0.00000000)
		(2.27932961 0.39875618 0.00000000)
		(2.29608939 0.40732141 0.00000000)
		(2.31284916 0.41676269 0.00000000)
		(2.32960894 0.42699079 0.00000000)
		(2.34636872 0.43790901 0.00000000)
		(2.36312849 0.44941417 0.00000000)
		(2.37988827 0.46139749 0.00000000)
		(2.39664804 0.47374570 0.00000000)
		(2.41340782 0.48634209 0.00000000)
		(2.43016760 0.49906759 0.00000000)
		(2.44692737 0.51180189 0.00000000)
		(2.46368715 0.52442464 0.00000000)
		(2.48044693 0.53681651 0.00000000)