/*--------------------------------*- C++ -*----------------------------------*\\
/*--------------------------------*- C++ -*----------------------------------*\\
| =========                 |                                                 |
| \\\\      /  F ield         | OpenFOAM: The Open Source CFD Toolbox           |
|  \\\\    /   O peration     | Version:  v2012                                 |
|   \\\\  /    A nd           | Website:  www.openfoam.com                      |
|    \\\\/     M anipulation  |                                                 |
\\*---------------------------------------------------------------------------*/
FoamFile
{
    version     2.0;
    format      ascii;
    class       dictionary;
    object      blockMeshDict;
}
// * * * * * * * * * * * * * * * * * * * * * * * * * * * * * * * * * * * * * //

scale   0.01;

xmin -1;
xmax 5;
ymin 0;
ymax 0.5;
zmin 0;
zmax 0.1;

vertices
(
    (-1.00000000 0.21936581 0.00000000)
    (4.00000000 0.04113424 0.00000000)
    (4.00000000 0.54113424 0.00000000)
    (-1.00000000 0.71936581 0.00000000)
    (-1.00000000 0.21936581 0.10000000)
    (4.00000000 0.04113424 0.10000000)
    (4.00000000 0.54113424 0.10000000)
    (-1.00000000 0.71936581 0.10000000)
);

blocks
(
    hex (0 1 2 3 4 5 6 7) (200 20 1) simpleGrading (1 1 1)
);

edges
(
	polyLine 0 1
	(
		(-1.00000000 0.21936581 0.00000000)
		(-0.98000000 0.21936581 0.00000000)
		(-0.96000000 0.21936581 0.00000000)
		(-0.94000000 0.21936581 0.00000000)
		(-0.92000000 0.21936581 0.00000000)
		(-0.90000000 0.21936581 0.00000000)
		(-0.88000000 0.21936581 0.00000000)
		(-0.86000000 0.21936581 0.00000000)
		(-0.84000000 0.21936581 0.00000000)
		(-0.82000000 0.21936581 0.00000000)
		(-0.80000000 0.21936581 0.00000000)
		(-0.78000000 0.21936581 0.00000000)
		(-0.76000000 0.21936581 0.00000000)
		(-0.74000000 0.21936581 0.00000000)
		(-0.72000000 0.21936581 0.00000000)
		(-0.70000000 0.21936581 0.00000000)
		(-0.68000000 0.21936581 0.00000000)
		(-0.66000000 0.21936581 0.00000000)
		(-0.64000000 0.21936581 0.00000000)
		(-0.62000000 0.21936581 0.00000000)
		(-0.60000000 0.21936581 0.00000000)
		(-0.58000000 0.21936581 0.00000000)
		(-0.56000000 0.21936581 0.00000000)
		(-0.54000000 0.21936581 0.00000000)
		(-0.52000000 0.21936581 0.00000000)
		(-0.50000000 0.21936581 0.00000000)
		(-0.48000000 0.21936581 0.00000000)
		(-0.46000000 0.21936581 0.00000000)
		(-0.44000000 0.21936581 0.00000000)
		(-0.42000000 0.21936581 0.00000000)
		(-0.40000000 0.21936581 0.00000000)
		(-0.38000000 0.21936581 0.00000000)
		(-0.36000000 0.21936581 0.00000000)
		(-0.34000000 0.21936581 0.00000000)
		(-0.32000000 0.21936581 0.00000000)
		(-0.30000000 0.21936581 0.00000000)
		(-0.28000000 0.21936581 0.00000000)
		(-0.26000000 0.21936581 0.00000000)
		(-0.24000000 0.21936581 0.00000000)
		(-0.22000000 0.21936581 0.00000000)
		(-0.20000000 0.21936581 0.00000000)
		(-0.18000000 0.21936581 0.00000000)
		(-0.16000000 0.21936581 0.00000000)
		(-0.14000000 0.21936581 0.00000000)
		(-0.12000000 0.21936581 0.00000000)
		(-0.10000000 0.21936581 0.00000000)
		(-0.08162011 0.21963418 0.00000000)
		(-0.06324022 0.22043928 0.00000000)
		(-0.04486034 0.22178112 0.00000000)
		(-0.02648045 0.22365969 0.00000000)
		(-0.00810056 0.22607499 0.00000000)
		(0.01027933 0.22902703 0.00000000)
		(0.02865922 0.23251580 0.00000000)
		(0.04703911 0.23654131 0.00000000)
		(0.06541899 0.24110355 0.00000000)
		(0.08379888 0.24620252 0.00000000)
		(0.10055866 0.24850617 0.00000000)
		(0.11731844 0.24975553 0.00000000)
		(0.13407821 0.24994531 0.00000000)
		(0.15083799 0.24907469 0.00000000)
		(0.16759777 0.24714739 0.00000000)
		(0.18435754 0.24417156 0.00000000)
		(0.20111732 0.24015984 0.00000000)
		(0.21787709 0.23512924 0.00000000)
		(0.23463687 0.22910111 0.00000000)
		(0.25139665 0.22210103 0.00000000)
		(0.26815642 0.21415868 0.00000000)
		(0.28491620 0.20530777 0.00000000)
		(0.30167598 0.19558585 0.00000000)
		(0.31843575 0.18503415 0.00000000)
		(0.33519553 0.17369745 0.00000000)
		(0.35195531 0.16162385 0.00000000)
		(0.36871508 0.14886455 0.00000000)
		(0.38547486 0.13547370 0.00000000)
		(0.40223464 0.12150810 0.00000000)
		(0.41899441 0.10702701 0.00000000)
		(0.43575419 0.09209186 0.00000000)
		(0.45251397 0.07676601 0.00000000)
		(0.46927374 0.06111448 0.00000000)
		(0.48603352 0.04520368 0.00000000)
		(0.50279330 0.02910109 0.00000000)
		(0.51955307 0.01287505 0.00000000)
		(0.53631285 -0.00340562 0.00000000)
		(0.55307263 -0.01967183 0.00000000)
		(0.56983240 -0.03585459 0.00000000)
		(0.58659218 -0.05188524 0.00000000)
		(0.60335196 -0.06769576 0.00000000)
		(0.62011173 -0.08321909 0.00000000)
		(0.63687151 -0.09838936 0.00000000)
		(0.65363128 -0.11314222 0.00000000)
		(0.67039106 -0.12741507 0.00000000)
		(0.68715084 -0.14114736 0.00000000)
		(0.70391061 -0.15428084 0.00000000)
		(0.72067039 -0.16675979 0.00000000)
		(0.73743017 -0.17853126 0.00000000)
		(0.75418994 -0.18954531 0.00000000)
		(0.77094972 -0.19975522 0.00000000)
		(0.78770950 -0.20911767 0.00000000)
		(0.80446927 -0.21759295 0.00000000)
		(0.82122905 -0.22514509 0.00000000)
		(0.83798883 -0.23174205 0.00000000)
		(0.85474860 -0.23735585 0.00000000)
		(0.87150838 -0.24196268 0.00000000)
		(0.88826816 -0.24554298 0.00000000)
		(0.90502793 -0.24808157 0.00000000)
		(0.92178771 -0.24956768 0.00000000)
		(0.93854749 -0.24999500 0.00000000)
		(0.95530726 -0.24936172 0.00000000)
		(0.97206704 -0.24767052 0.00000000)
		(0.98882682 -0.24492859 0.00000000)
		(1.00558659 -0.24114755 0.00000000)
		(1.02234637 -0.23634345 0.00000000)
		(1.03910615 -0.23053667 0.00000000)
		(1.05586592 -0.22375183 0.00000000)
		(1.07262570 -0.21601774 0.00000000)
		(1.08938547 -0.20736719 0.00000000)
		(1.10614525 -0.19783689 0.00000000)
		(1.12290503 -0.18746727 0.00000000)
		(1.13966480 -0.17630232 0.00000000)
		(1.15642458 -0.16438941 0.00000000)
		(1.17318436 -0.15177908 0.00000000)
		(1.18994413 -0.13852484 0.00000000)
		(1.20670391 -0.12468290 0.00000000)
		(1.22346369 -0.11031200 0.00000000)
		(1.24022346 -0.09547310 0.00000000)
		(1.25698324 -0.08022916 0.00000000)
		(1.27374302 -0.06464484 0.00000000)
		(1.29050279 -0.04878628 0.00000000)
		(1.30726257 -0.03272073 0.00000000)
		(1.32402235 -0.01651637 0.00000000)
		(1.34078212 -0.00024194 0.00000000)
		(1.35754190 0.01603351 0.00000000)
		(1.37430168 0.03224095 0.00000000)
		(1.39106145 0.04831160 0.00000000)
		(1.40782123 0.06417729 0.00000000)
		(1.42458101 0.07977072 0.00000000)
		(1.44134078 0.09502571 0.00000000)
		(1.45810056 0.10987756 0.00000000)
		(1.47486034 0.12426326 0.00000000)
		(1.49162011 0.13812177 0.00000000)
		(1.50837989 0.15139430 0.00000000)
		(1.52513966 0.16402454 0.00000000)
		(1.54189944 0.17595891 0.00000000)
		(1.55865922 0.18714678 0.00000000)
		(1.57541899 0.19754069 0.00000000)
		(1.59217877 0.20709652 0.00000000)
		(1.60893855 0.21577376 0.00000000)
		(1.62569832 0.22353558 0.00000000)
		(1.64245810 0.23034905 0.00000000)
		(1.65921788 0.23618527 0.00000000)
		(1.67597765 0.24101948 0.00000000)
		(1.69273743 0.24483116 0.00000000)
		(1.70949721 0.24760416 0.00000000)
		(1.72625698 0.24932669 0.00000000)
		(1.74301676 0.24999147 0.00000000)
		(1.75977654 0.24959565 0.00000000)
		(1.77653631 0.24814093 0.00000000)
		(1.79329609 0.24563348 0.00000000)
		(1.81005587 0.24208393 0.00000000)
		(1.82681564 0.23750735 0.00000000)
		(1.84357542 0.23192314 0.00000000)
		(1.86033520 0.22535500 0.00000000)
		(1.87709497 0.21783080 0.00000000)
		(1.89385475 0.20938246 0.00000000)
		(1.91061453 0.20004581 0.00000000)
		(1.92737430 0.18986047 0.00000000)
		(1.94413408 0.17886965 0.00000000)
		(1.96089385 0.16711998 0.00000000)
		(1.97765363 0.15466131 0.00000000)
		(1.99441341 0.14154648 0.00000000)
		(2.01117318 0.12783115 0.00000000)
		(2.02793296 0.11357350 0.00000000)
		(2.04469274 0.09883401 0.00000000)
		(2.06145251 0.08367522 0.00000000)
		(2.07821229 0.06816144 0.00000000)
		(2.09497207 0.05235849 0.00000000)
		(2.11173184 0.03633341 0.00000000)
		(2.12849162 0.02015418 0.00000000)
		(2.14525140 0.00388945 0.00000000)
		(2.16201117 -0.01239178 0.00000000)
		(2.17877095 -0.02862044 0.00000000)
		(2.19553073 -0.04472768 0.00000000)
		(2.21229050 -0.06064516 0.00000000)
		(2.22905028 -0.07630536 0.00000000)
		(2.24581006 -0.09164183 0.00000000)
		(2.26256983 -0.10658951 0.00000000)
		(2.27932961 -0.12108499 0.00000000)
		(2.29608939 -0.13506677 0.00000000)
		(2.31284916 -0.14847553 0.00000000)
		(2.32960894 -0.16125438 0.00000000)
		(2.34636872 -0.17334911 0.00000000)
		(2.36312849 -0.18470842 0.00000000)
		(2.37988827 -0.19528410 0.00000000)
		(2.39664804 -0.20503129 0.00000000)
		(2.41340782 -0.21390864 0.00000000)
		(2.43016760 -0.22187848 0.00000000)
		(2.44692737 -0.22890701 0.00000000)
		(2.46368715 -0.23496440 0.00000000)
		(2.48044693 -0.24002496 0.00000000)
		(2.49720670 -0.24406722 0.00000000)
		(2.51396648 -0.24707403 0.00000000)
		(2.53072626 -0.24903263 0.00000000)
		(2.54748603 -0.24993472 0.00000000)
		(2.56424581 -0.24977646 0.00000000)
		(2.58100559 -0.24855852 0.00000000)
		(2.59776536 -0.24628608 0.00000000)
		(2.61452514 -0.24296878 0.00000000)
		(2.63128492 -0.23862068 0.00000000)
		(2.64804469 -0.23326024 0.00000000)
		(2.66480447 -0.22691020 0.00000000)
		(2.68156425 -0.21959750 0.00000000)
		(2.69832402 -0.21135315 0.00000000)
		(2.71508380 -0.20221214 0.00000000)
		(2.73184358 -0.19221326 0.00000000)
		(2.74860335 -0.18139891 0.00000000)
		(2.76536313 -0.16981497 0.00000000)
		(2.78212291 -0.15751060 0.00000000)
		(2.79888268 -0.14453800 0.00000000)
		(2.81564246 -0.13095219 0.00000000)
		(2.83240223 -0.11681082 0.00000000)
		(2.84916201 -0.10217389 0.00000000)
		(2.86592179 -0.08710348 0.00000000)
		(2.88268156 -0.07166353 0.00000000)
		(2.89944134 -0.05591956 0.00000000)
		(2.91620112 -0.03993835 0.00000000)
		(2.93296089 -0.02378770 0.00000000)
		(2.95166480 -0.01145253 0.00000000)
		(2.97036872 -0.00041580 0.00000000)
		(2.98907263 0.00932249 0.00000000)
		(3.00777654 0.01776234 0.00000000)
		(3.02648045 0.02490375 0.00000000)
		(3.04518436 0.03074673 0.00000000)
		(3.06388827 0.03529126 0.00000000)
		(3.08259218 0.03853736 0.00000000)
		(3.10129609 0.04048502 0.00000000)
		(3.12000000 0.04113424 0.00000000)
		(3.14000000 0.04113424 0.00000000)
		(3.16000000 0.04113424 0.00000000)
		(3.18000000 0.04113424 0.00000000)
		(3.20000000 0.04113424 0.00000000)
		(3.22000000 0.04113424 0.00000000)
		(3.24000000 0.04113424 0.00000000)
		(3.26000000 0.04113424 0.00000000)
		(3.28000000 0.04113424 0.00000000)
		(3.30000000 0.04113424 0.00000000)
		(3.32000000 0.04113424 0.00000000)
		(3.34000000 0.04113424 0.00000000)
		(3.36000000 0.04113424 0.00000000)
		(3.38000000 0.04113424 0.00000000)
		(3.40000000 0.04113424 0.00000000)
		(3.42000000 0.04113424 0.00000000)
		(3.44000000 0.04113424 0.00000000)
		(3.46000000 0.04113424 0.00000000)
		(3.48000000 0.04113424 0.00000000)
		(3.50000000 0.04113424 0.00000000)
		(3.52000000 0.04113424 0.00000000)
		(3.54000000 0.04113424 0.00000000)
		(3.56000000 0.04113424 0.00000000)
		(3.58000000 0.04113424 0.00000000)
		(3.60000000 0.04113424 0.00000000)
		(3.62000000 0.04113424 0.00000000)
		(3.64000000 0.04113424 0.00000000)
		(3.66000000 0.04113424 0.00000000)
		(3.68000000 0.04113424 0.00000000)
		(3.70000000 0.04113424 0.00000000)
		(3.72000000 0.04113424 0.00000000)
		(3.74000000 0.04113424 0.00000000)
		(3.76000000 0.04113424 0.00000000)
		(3.78000000 0.04113424 0.00000000)
		(3.80000000 0.04113424 0.00000000)
		(3.82000000 0.04113424 0.00000000)
		(3.84000000 0.04113424 0.00000000)
		(3.86000000 0.04113424 0.00000000)
		(3.88000000 0.04113424 0.00000000)
		(3.90000000 0.04113424 0.00000000)
		(3.92000000 0.04113424 0.00000000)
		(3.94000000 0.04113424 0.00000000)
		(3.96000000 0.04113424 0.00000000)
		(3.98000000 0.04113424 0.00000000)
		(4.00000000 0.04113424 0.00000000)
	)
	polyLine 4 5
	(
		(-1.00000000 0.21936581 0.10000000)
		(-0.98000000 0.21936581 0.10000000)
		(-0.96000000 0.21936581 0.10000000)
		(-0.94000000 0.21936581 0.10000000)
		(-0.92000000 0.21936581 0.10000000)
		(-0.90000000 0.21936581 0.10000000)
		(-0.88000000 0.21936581 0.10000000)
		(-0.86000000 0.21936581 0.10000000)
		(-0.84000000 0.21936581 0.10000000)
		(-0.82000000 0.21936581 0.10000000)
		(-0.80000000 0.21936581 0.10000000)
		(-0.78000000 0.21936581 0.10000000)
		(-0.76000000 0.21936581 0.10000000)
		(-0.74000000 0.21936581 0.10000000)
		(-0.72000000 0.21936581 0.10000000)
		(-0.70000000 0.21936581 0.10000000)
		(-0.68000000 0.21936581 0.10000000)
		(-0.66000000 0.21936581 0.10000000)
		(-0.64000000 0.21936581 0.10000000)
		(-0.62000000 0.21936581 0.10000000)
		(-0.60000000 0.21936581 0.10000000)
		(-0.58000000 0.21936581 0.10000000)
		(-0.56000000 0.21936581 0.10000000)
		(-0.54000000 0.21936581 0.10000000)
		(-0.52000000 0.21936581 0.10000000)
		(-0.50000000 0.21936581 0.10000000)
		(-0.48000000 0.21936581 0.10000000)
		(-0.46000000 0.21936581 0.10000000)
		(-0.44000000 0.21936581 0.10000000)
		(-0.42000000 0.21936581 0.10000000)
		(-0.40000000 0.21936581 0.10000000)
		(-0.38000000 0.21936581 0.10000000)
		(-0.36000000 0.21936581 0.10000000)
		(-0.34000000 0.21936581 0.10000000)
		(-0.32000000 0.21936581 0.10000000)
		(-0.30000000 0.21936581 0.10000000)
		(-0.28000000 0.21936581 0.10000000)
		(-0.26000000 0.21936581 0.10000000)
		(-0.24000000 0.21936581 0.10000000)
		(-0.22000000 0.21936581 0.10000000)
		(-0.20000000 0.21936581 0.10000000)
		(-0.18000000 0.21936581 0.10000000)
		(-0.16000000 0.21936581 0.10000000)
		(-0.14000000 0.21936581 0.10000000)
		(-0.12000000 0.21936581 0.10000000)
		(-0.10000000 0.21936581 0.10000000)
		(-0.08162011 0.21963418 0.10000000)
		(-0.06324022 0.22043928 0.10000000)
		(-0.04486034 0.22178112 0.10000000)
		(-0.02648045 0.22365969 0.10000000)
		(-0.00810056 0.22607499 0.10000000)
		(0.01027933 0.22902703 0.10000000)
		(0.02865922 0.23251580 0.10000000)
		(0.04703911 0.23654131 0.10000000)
		(0.06541899 0.24110355 0.10000000)
		(0.08379888 0.24620252 0.10000000)
		(0.10055866 0.24850617 0.10000000)
		(0.11731844 0.24975553 0.10000000)
		(0.13407821 0.24994531 0.10000000)
		(0.15083799 0.24907469 0.10000000)
		(0.16759777 0.24714739 0.10000000)
		(0.18435754 0.24417156 0.10000000)
		(0.20111732 0.24015984 0.10000000)
		(0.21787709 0.23512924 0.10000000)
		(0.23463687 0.22910111 0.10000000)
		(0.25139665 0.22210103 0.10000000)
		(0.26815642 0.21415868 0.10000000)
		(0.28491620 0.20530777 0.10000000)
		(0.30167598 0.19558585 0.10000000)
		(0.31843575 0.18503415 0.10000000)
		(0.33519553 0.17369745 0.10000000)
		(0.35195531 0.16162385 0.10000000)
		(0.36871508 0.14886455 0.10000000)
		(0.38547486 0.13547370 0.10000000)
		(0.40223464 0.12150810 0.10000000)
		(0.41899441 0.10702701 0.10000000)
		(0.43575419 0.09209186 0.10000000)
		(0.45251397 0.07676601 0.10000000)
		(0.46927374 0.06111448 0.10000000)
		(0.48603352 0.04520368 0.10000000)
		(0.50279330 0.02910109 0.10000000)
		(0.51955307 0.01287505 0.10000000)
		(0.53631285 -0.00340562 0.10000000)
		(0.55307263 -0.01967183 0.10000000)
		(0.56983240 -0.03585459 0.10000000)
		(0.58659218 -0.05188524 0.10000000)
		(0.60335196 -0.06769576 0.10000000)
		(0.62011173 -0.08321909 0.10000000)
		(0.63687151 -0.09838936 0.10000000)
		(0.65363128 -0.11314222 0.10000000)
		(0.67039106 -0.12741507 0.10000000)
		(0.68715084 -0.14114736 0.10000000)
		(0.70391061 -0.15428084 0.10000000)
		(0.72067039 -0.16675979 0.10000000)
		(0.73743017 -0.17853126 0.10000000)
		(0.75418994 -0.18954531 0.10000000)
		(0.77094972 -0.19975522 0.10000000)
		(0.78770950 -0.20911767 0.10000000)
		(0.80446927 -0.21759295 0.10000000)
		(0.82122905 -0.22514509 0.10000000)
		(0.83798883 -0.23174205 0.10000000)
		(0.85474860 -0.23735585 0.10000000)
		(0.87150838 -0.24196268 0.10000000)
		(0.88826816 -0.24554298 0.10000000)
		(0.90502793 -0.24808157 0.10000000)
		(0.92178771 -0.24956768 0.10000000)
		(0.93854749 -0.24999500 0.10000000)
		(0.95530726 -0.24936172 0.10000000)
		(0.97206704 -0.24767052 0.10000000)
		(0.98882682 -0.24492859 0.10000000)
		(1.00558659 -0.24114755 0.10000000)
		(1.02234637 -0.23634345 0.10000000)
		(1.03910615 -0.23053667 0.10000000)
		(1.05586592 -0.22375183 0.10000000)
		(1.07262570 -0.21601774 0.10000000)
		(1.08938547 -0.20736719 0.10000000)
		(1.10614525 -0.19783689 0.10000000)
		(1.12290503 -0.18746727 0.10000000)
		(1.13966480 -0.17630232 0.10000000)
		(1.15642458 -0.16438941 0.10000000)
		(1.17318436 -0.15177908 0.10000000)
		(1.18994413 -0.13852484 0.10000000)
		(1.20670391 -0.12468290 0.10000000)
		(1.22346369 -0.11031200 0.10000000)
		(1.24022346 -0.09547310 0.10000000)
		(1.25698324 -0.08022916 0.10000000)
		(1.27374302 -0.06464484 0.10000000)
		(1.29050279 -0.04878628 0.10000000)
		(1.30726257 -0.03272073 0.10000000)
		(1.32402235 -0.01651637 0.10000000)
		(1.34078212 -0.00024194 0.10000000)
		(1.35754190 0.01603351 0.10000000)
		(1.37430168 0.03224095 0.10000000)
		(1.39106145 0.04831160 0.10000000)
		(1.40782123 0.06417729 0.10000000)
		(1.42458101 0.07977072 0.10000000)
		(1.44134078 0.09502571 0.10000000)
		(1.45810056 0.10987756 0.10000000)
		(1.47486034 0.12426326 0.10000000)
		(1.49162011 0.13812177 0.10000000)
		(1.50837989 0.15139430 0.10000000)
		(1.52513966 0.16402454 0.10000000)
		(1.54189944 0.17595891 0.10000000)
		(1.55865922 0.18714678 0.10000000)
		(1.57541899 0.19754069 0.10000000)
		(1.59217877 0.20709652 0.10000000)
		(1.60893855 0.21577376 0.10000000)
		(1.62569832 0.22353558 0.10000000)
		(1.64245810 0.23034905 0.10000000)
		(1.65921788 0.23618527 0.10000000)
		(1.67597765 0.24101948 0.10000000)
		(1.69273743 0.24483116 0.10000000)
		(1.70949721 0.24760416 0.10000000)
		(1.72625698 0.24932669 0.10000000)
		(1.74301676 0.24999147 0.10000000)
		(1.75977654 0.24959565 0.10000000)
		(1.77653631 0.24814093 0.10000000)
		(1.79329609 0.24563348 0.10000000)
		(1.81005587 0.24208393 0.10000000)
		(1.82681564 0.23750735 0.10000000)
		(1.84357542 0.23192314 0.10000000)
		(1.86033520 0.22535500 0.10000000)
		(1.87709497 0.21783080 0.10000000)
		(1.89385475 0.20938246 0.10000000)
		(1.91061453 0.20004581 0.10000000)
		(1.92737430 0.18986047 0.10000000)
		(1.94413408 0.17886965 0.10000000)
		(1.96089385 0.16711998 0.10000000)
		(1.97765363 0.15466131 0.10000000)
		(1.99441341 0.14154648 0.10000000)
		(2.01117318 0.12783115 0.10000000)
		(2.02793296 0.11357350 0.10000000)
		(2.04469274 0.09883401 0.10000000)
		(2.06145251 0.08367522 0.10000000)
		(2.07821229 0.06816144 0.10000000)
		(2.09497207 0.05235849 0.10000000)
		(2.11173184 0.03633341 0.10000000)
		(2.12849162 0.02015418 0.10000000)
		(2.14525140 0.00388945 0.10000000)
		(2.16201117 -0.01239178 0.10000000)
		(2.17877095 -0.02862044 0.10000000)
		(2.19553073 -0.04472768 0.10000000)
		(2.21229050 -0.06064516 0.10000000)
		(2.22905028 -0.07630536 0.10000000)
		(2.24581006 -0.09164183 0.10000000)
		(2.26256983 -0.10658951 0.10000000)
		(2.27932961 -0.12108499 0.10000000)
		(2.29608939 -0.13506677 0.10000000)
		(2.31284916 -0.14847553 0.10000000)
		(2.32960894 -0.16125438 0.10000000)
		(2.34636872 -0.17334911 0.10000000)
		(2.36312849 -0.18470842 0.10000000)
		(2.37988827 -0.19528410 0.10000000)
		(2.39664804 -0.20503129 0.10000000)
		(2.41340782 -0.21390864 0.10000000)
		(2.43016760 -0.22187848 0.10000000)
		(2.44692737 -0.22890701 0.10000000)
		(2.46368715 -0.23496440 0.10000000)
		(2.48044693 -0.24002496 0.10000000)
		(2.49720670 -0.24406722 0.10000000)
		(2.51396648 -0.24707403 0.10000000)
		(2.53072626 -0.24903263 0.10000000)
		(2.54748603 -0.24993472 0.10000000)
		(2.56424581 -0.24977646 0.10000000)
		(2.58100559 -0.24855852 0.10000000)
		(2.59776536 -0.24628608 0.10000000)
		(2.61452514 -0.24296878 0.10000000)
		(2.63128492 -0.23862068 0.10000000)
		(2.64804469 -0.23326024 0.10000000)
		(2.66480447 -0.22691020 0.10000000)
		(2.68156425 -0.21959750 0.10000000)
		(2.69832402 -0.21135315 0.10000000)
		(2.71508380 -0.20221214 0.10000000)
		(2.73184358 -0.19221326 0.10000000)
		(2.74860335 -0.18139891 0.10000000)
		(2.76536313 -0.16981497 0.10000000)
		(2.78212291 -0.15751060 0.10000000)
		(2.79888268 -0.14453800 0.10000000)
		(2.81564246 -0.13095219 0.10000000)
		(2.83240223 -0.11681082 0.10000000)
		(2.84916201 -0.10217389 0.10000000)
		(2.86592179 -0.08710348 0.10000000)
		(2.88268156 -0.07166353 0.10000000)
		(2.89944134 -0.05591956 0.10000000)
		(2.91620112 -0.03993835 0.10000000)
		(2.93296089 -0.02378770 0.10000000)
		(2.95166480 -0.01145253 0.10000000)
		(2.97036872 -0.00041580 0.10000000)
		(2.98907263 0.00932249 0.10000000)
		(3.00777654 0.01776234 0.10000000)
		(3.02648045 0.02490375 0.10000000)
		(3.04518436 0.03074673 0.10000000)
		(3.06388827 0.03529126 0.10000000)
		(3.08259218 0.03853736 0.10000000)
		(3.10129609 0.04048502 0.10000000)
		(3.12000000 0.04113424 0.10000000)
		(3.14000000 0.04113424 0.10000000)
		(3.16000000 0.04113424 0.10000000)
		(3.18000000 0.04113424 0.10000000)
		(3.20000000 0.04113424 0.10000000)
		(3.22000000 0.04113424 0.10000000)
		(3.24000000 0.04113424 0.10000000)
		(3.26000000 0.04113424 0.10000000)
		(3.28000000 0.04113424 0.10000000)
		(3.30000000 0.04113424 0.10000000)
		(3.32000000 0.04113424 0.10000000)
		(3.34000000 0.04113424 0.10000000)
		(3.36000000 0.04113424 0.10000000)
		(3.38000000 0.04113424 0.10000000)
		(3.40000000 0.04113424 0.10000000)
		(3.42000000 0.04113424 0.10000000)
		(3.44000000 0.04113424 0.10000000)
		(3.46000000 0.04113424 0.10000000)
		(3.48000000 0.04113424 0.10000000)
		(3.50000000 0.04113424 0.10000000)
		(3.52000000 0.04113424 0.10000000)
		(3.54000000 0.04113424 0.10000000)
		(3.56000000 0.04113424 0.10000000)
		(3.58000000 0.04113424 0.10000000)
		(3.60000000 0.04113424 0.10000000)
		(3.62000000 0.04113424 0.10000000)
		(3.64000000 0.04113424 0.10000000)
		(3.66000000 0.04113424 0.10000000)
		(3.68000000 0.04113424 0.10000000)
		(3.70000000 0.04113424 0.10000000)
		(3.72000000 0.04113424 0.10000000)
		(3.74000000 0.04113424 0.10000000)
		(3.76000000 0.04113424 0.10000000)
		(3.78000000 0.04113424 0.10000000)
		(3.80000000 0.04113424 0.10000000)
		(3.82000000 0.04113424 0.10000000)
		(3.84000000 0.04113424 0.10000000)
		(3.86000000 0.04113424 0.10000000)
		(3.88000000 0.04113424 0.10000000)
		(3.90000000 0.04113424 0.10000000)
		(3.92000000 0.04113424 0.10000000)
		(3.94000000 0.04113424 0.10000000)
		(3.96000000 0.04113424 0.10000000)
		(3.98000000 0.04113424 0.10000000)
		(4.00000000 0.04113424 0.10000000)
	)
	polyLine 3 2
	(
		(-1.00000000 0.71936581 0.00000000)
		(-0.98000000 0.71669980 0.00000000)
		(-0.96000000 0.71403378 0.00000000)
		(-0.94000000 0.71136776 0.00000000)
		(-0.92000000 0.70870175 0.00000000)
		(-0.90000000 0.70603573 0.00000000)
		(-0.88000000 0.70336971 0.00000000)
		(-0.86000000 0.70070369 0.00000000)
		(-0.84000000 0.69803768 0.00000000)
		(-0.82000000 0.69537166 0.00000000)
		(-0.80000000 0.69270564 0.00000000)
		(-0.78000000 0.69003962 0.00000000)
		(-0.76000000 0.68737361 0.00000000)
		(-0.74000000 0.68470759 0.00000000)
		(-0.72000000 0.68204157 0.00000000)
		(-0.70000000 0.67937556 0.00000000)
		(-0.68000000 0.67670954 0.00000000)
		(-0.66000000 0.67404352 0.00000000)
		(-0.64000000 0.67137750 0.00000000)
		(-0.62000000 0.66871149 0.00000000)
		(-0.60000000 0.66604547 0.00000000)
		(-0.58000000 0.66337945 0.00000000)
		(-0.56000000 0.66071344 0.00000000)
		(-0.54000000 0.65804742 0.00000000)
		(-0.52000000 0.65538140 0.00000000)
		(-0.50000000 0.65271538 0.00000000)
		(-0.48000000 0.65004937 0.00000000)
		(-0.46000000 0.64738335 0.00000000)
		(-0.44000000 0.64471733 0.00000000)
		(-0.42000000 0.64205131 0.00000000)
		(-0.40000000 0.63938530 0.00000000)
		(-0.38000000 0.63671928 0.00000000)
		(-0.36000000 0.63405326 0.00000000)
		(-0.34000000 0.63138725 0.00000000)
		(-0.32000000 0.62872123 0.00000000)
		(-0.30000000 0.62605521 0.00000000)
		(-0.28000000 0.62338919 0.00000000)
		(-0.26000000 0.62072318 0.00000000)
		(-0.24000000 0.61805716 0.00000000)
		(-0.22000000 0.61539114 0.00000000)
		(-0.20000000 0.61272512 0.00000000)
		(-0.18000000 0.61005911 0.00000000)
		(-0.16000000 0.60739309 0.00000000)
		(-0.14000000 0.60472707 0.00000000)
		(-0.12000000 0.60206106 0.00000000)
		(-0.10000000 0.59939504 0.00000000)
		(-0.08162011 0.59745920 0.00000000)
		(-0.06324022 0.59595779 0.00000000)
		(-0.04486034 0.59489081 0.00000000)
		(-0.02648045 0.59425827 0.00000000)
		(-0.00810056 0.59406016 0.00000000)
		(0.01027933 0.59429648 0.00000000)
		(0.02865922 0.59496724 0.00000000)
		(0.04703911 0.59607243 0.00000000)
		(0.06541899 0.59761206 0.00000000)
		(0.08379888 0.59958611 0.00000000)
		(0.10055866 0.60051791 0.00000000)
		(0.11731844 0.60102326 0.00000000)
		(0.13407821 0.60110002 0.00000000)
		(0.15083799 0.60074787 0.00000000)
		(0.16759777 0.59996830 0.00000000)
		(0.18435754 0.59876461 0.00000000)
		(0.20111732 0.59714191 0.00000000)
		(0.21787709 0.59510710 0.00000000)
		(0.23463687 0.59266879 0.00000000)
		(0.25139665 0.58983733 0.00000000)
		(0.26815642 0.58662474 0.00000000)
		(0.28491620 0.58304465 0.00000000)
		(0.30167598 0.57911224 0.00000000)
		(0.31843575 0.57484420 0.00000000)
		(0.33519553 0.57025864 0.00000000)
		(0.35195531 0.56537500 0.00000000)
		(0.36871508 0.56021401 0.00000000)
		(0.38547486 0.55479757 0.00000000)
		(0.40223464 0.54914864 0.00000000)
		(0.41899441 0.54329121 0.00000000)
		(0.43575419 0.53725011 0.00000000)
		(0.45251397 0.53105098 0.00000000)
		(0.46927374 0.52472011 0.00000000)
		(0.48603352 0.51828437 0.00000000)
		(0.50279330 0.51177106 0.00000000)
		(0.51955307 0.50520781 0.00000000)
		(0.53631285 0.49862247 0.00000000)
		(0.55307263 0.49204297 0.00000000)
		(0.56983240 0.48549723 0.00000000)
		(0.58659218 0.47901301 0.00000000)
		(0.60335196 0.47261784 0.00000000)
		(0.62011173 0.46633883 0.00000000)
		(0.63687151 0.46020263 0.00000000)
		(0.65363128 0.45423526 0.00000000)
		(0.67039106 0.44846206 0.00000000)
		(0.68715084 0.44290750 0.00000000)
		(0.70391061 0.43759516 0.00000000)
		(0.72067039 0.43254757 0.00000000)
		(0.73743017 0.42778614 0.00000000)
		(0.75418994 0.42333108 0.00000000)
		(0.77094972 0.41920129 0.00000000)
		(0.78770950 0.41541429 0.00000000)
		(0.80446927 0.41198613 0.00000000)
		(0.82122905 0.40893138 0.00000000)
		(0.83798883 0.40626298 0.00000000)
		(0.85474860 0.40399226 0.00000000)
		(0.87150838 0.40212886 0.00000000)
		(0.88826816 0.40068067 0.00000000)
		(0.90502793 0.39965384 0.00000000)
		(0.92178771 0.39905272 0.00000000)
		(0.93854749 0.39887988 0.00000000)
		(0.95530726 0.39913603 0.00000000)
		(0.97206704 0.39982010 0.00000000)
		(0.98882682 0.40092918 0.00000000)
		(1.00558659 0.40245857 0.00000000)
		(1.02234637 0.40440177 0.00000000)
		(1.03910615 0.40675055 0.00000000)
		(1.05586592 0.40949494 0.00000000)
		(1.07262570 0.41262329 0.00000000)
		(1.08938547 0.41612234 0.00000000)
		(1.10614525 0.41997724 0.00000000)
		(1.12290503 0.42417163 0.00000000)
		(1.13966480 0.42868772 0.00000000)
		(1.15642458 0.43350636 0.00000000)
		(1.17318436 0.43860709 0.00000000)
		(1.18994413 0.44396828 0.00000000)
		(1.20670391 0.44956719 0.00000000)
		(1.22346369 0.45538006 0.00000000)
		(1.24022346 0.46138222 0.00000000)
		(1.25698324 0.46754822 0.00000000)
		(1.27374302 0.47385190 0.00000000)
		(1.29050279 0.48026651 0.00000000)
		(1.30726257 0.48676484 0.00000000)
		(1.32402235 0.49331932 0.00000000)
		(1.34078212 0.49990214 0.00000000)
		(1.35754190 0.50648537 0.00000000)
		(1.37430168 0.51304110 0.00000000)
		(1.39106145 0.51954149 0.00000000)
		(1.40782123 0.52595898 0.00000000)
		(1.42458101 0.53226634 0.00000000)
		(1.44134078 0.53843682 0.00000000)
		(1.45810056 0.54444422 0.00000000)
		(1.47486034 0.55026307 0.00000000)
		(1.49162011 0.55586868 0.00000000)
		(1.50837989 0.56123727 0.00000000)
		(1.52513966 0.56634606 0.00000000)
		(1.54189944 0.57117337 0.00000000)
		(1.55865922 0.57569874 0.00000000)
		(1.57541899 0.57990295 0.00000000)
		(1.59217877 0.58376818 0.00000000)
		(1.60893855 0.58727802 0.00000000)
		(1.62569832 0.59041759 0.00000000)
		(1.64245810 0.59317356 0.00000000)
		(1.65921788 0.59553425 0.00000000)
		(1.67597765 0.59748963 0.00000000)
		(1.69273743 0.59903141 0.00000000)
		(1.70949721 0.60015306 0.00000000)
		(1.72625698 0.60084980 0.00000000)
		(1.74301676 0.60111870 0.00000000)
		(1.75977654 0.60095859 0.00000000)
		(1.77653631 0.60037018 0.00000000)
		(1.79329609 0.59935594 0.00000000)
		(1.81005587 0.59792019 0.00000000)
		(1.82681564 0.59606901 0.00000000)
		(1.84357542 0.59381027 0.00000000)
		(1.86033520 0.59115353 0.00000000)
		(1.87709497 0.58811007 0.00000000)
		(1.89385475 0.58469282 0.00000000)
		(1.91061453 0.58091625 0.00000000)
		(1.92737430 0.57679639 0.00000000)
		(1.94413408 0.57235073 0.00000000)
		(1.96089385 0.56759813 0.00000000)
		(1.97765363 0.56255873 0.00000000)
		(1.99441341 0.55725394 0.00000000)
		(2.01117318 0.55170624 0.00000000)
		(2.02793296 0.54593918 0.00000000)
		(2.04469274 0.53997723 0.00000000)
		(2.06145251 0.53384567 0.00000000)
		(2.07821229 0.52757053 0.00000000)
		(2.09497207 0.52117841 0.00000000)
		(2.11173184 0.51469645 0.00000000)
		(2.12849162 0.50815214 0.00000000)
		(2.14525140 0.50157324 0.00000000)
		(2.16201117 0.49498767 0.00000000)
		(2.17877095 0.48842336 0.00000000)
		(2.19553073 0.48190816 0.00000000)
		(2.21229050 0.47546972 0.00000000)
		(2.22905028 0.46913535 0.00000000)
		(2.24581006 0.46293193 0.00000000)
		(2.26256983 0.45688576 0.00000000)
		(2.27932961 0.45102250 0.00000000)
		(2.29608939 0.44536703 0.00000000)
		(2.31284916 0.43994334 0.00000000)
		(2.32960894 0.43477444 0.00000000)
		(2.34636872 0.42988226 0.00000000)
		(2.36312849 0.42528755 0.00000000)
		(2.37988827 0.42100981 0.00000000)
		(2.39664804 0.41706718 0.00000000)
		(2.41340782 0.41347640 0.00000000)
		(2.43016760 0.41025269 0.00000000)
		(2.44692737 0.40740973 0.00000000)
		(2.46368715 0.40495958 0.00000000)
		(2.48044693 0.40291264 0.00000000)
		(2.49720670 0.40127759 0.00000000)
		(2.51396648 0.40006137 0.00000000)
		(2.53072626 0.39926914 0.00000000)
		(2.54748603 0.39890426 0.00000000)