/*--------------------------------*- C++ -*----------------------------------*\\
/*--------------------------------*- C++ -*----------------------------------*\\
| =========                 |                                                 |
| \\\\      /  F ield         | OpenFOAM: The Open Source CFD Toolbox           |
|  \\\\    /   O peration     | Version:  v2012                                 |
|   \\\\  /    A nd           | Website:  www.openfoam.com                      |
|    \\\\/     M anipulation  |                                                 |
\\*---------------------------------------------------------------------------*/
FoamFile
{
    version     2.0;
    format      ascii;
    class       dictionary;
    object      blockMeshDict;
}
// * * * * * * * * * * * * * * * * * * * * * * * * * * * * * * * * * * * * * //

scale   0.01;

xmin -1;
xmax 5;
ymin 0;
ymax 0.5;
zmin 0;
zmax 0.1;

vertices
(
    (-1.00000000 -0.24125117 0.00000000)
    (4.00000000 0.24412028 0.00000000)
    (4.00000000 0.74412028 0.00000000)
    (-1.00000000 0.25874883 0.00000000)
    (-1.00000000 -0.24125117 0.10000000)
    (4.00000000 0.24412028 0.10000000)
    (4.00000000 0.74412028 0.10000000)
    (-1.00000000 0.25874883 0.10000000)
);

blocks
(
    hex (0 1 2 3 4 5 6 7) (200 20 1) simpleGrading (1 1 1)
);

edges
(
	polyLine 0 1
	(
		(-1.00000000 -0.24125117 0.00000000)
		(-0.98000000 -0.24125117 0.00000000)
		(-0.96000000 -0.24125117 0.00000000)
		(-0.94000000 -0.24125117 0.00000000)
		(-0.92000000 -0.24125117 0.00000000)
		(-0.90000000 -0.24125117 0.00000000)
		(-0.88000000 -0.24125117 0.00000000)
		(-0.86000000 -0.24125117 0.00000000)
		(-0.84000000 -0.24125117 0.00000000)
		(-0.82000000 -0.24125117 0.00000000)
		(-0.80000000 -0.24125117 0.00000000)
		(-0.78000000 -0.24125117 0.00000000)
		(-0.76000000 -0.24125117 0.00000000)
		(-0.74000000 -0.24125117 0.00000000)
		(-0.72000000 -0.24125117 0.00000000)
		(-0.70000000 -0.24125117 0.00000000)
		(-0.68000000 -0.24125117 0.00000000)
		(-0.66000000 -0.24125117 0.00000000)
		(-0.64000000 -0.24125117 0.00000000)
		(-0.62000000 -0.24125117 0.00000000)
		(-0.60000000 -0.24125117 0.00000000)
		(-0.58000000 -0.24125117 0.00000000)
		(-0.56000000 -0.24125117 0.00000000)
		(-0.54000000 -0.24125117 0.00000000)
		(-0.52000000 -0.24125117 0.00000000)
		(-0.50000000 -0.24125117 0.00000000)
		(-0.48000000 -0.24125117 0.00000000)
		(-0.46000000 -0.24125117 0.00000000)
		(-0.44000000 -0.24125117 0.00000000)
		(-0.42000000 -0.24125117 0.00000000)
		(-0.40000000 -0.24125117 0.00000000)
		(-0.38000000 -0.24125117 0.00000000)
		(-0.36000000 -0.24125117 0.00000000)
		(-0.34000000 -0.24125117 0.00000000)
		(-0.32000000 -0.24125117 0.00000000)
		(-0.30000000 -0.24125117 0.00000000)
		(-0.28000000 -0.24125117 0.00000000)
		(-0.26000000 -0.24125117 0.00000000)
		(-0.24000000 -0.24125117 0.00000000)
		(-0.22000000 -0.24125117 0.00000000)
		(-0.20000000 -0.24125117 0.00000000)
		(-0.18000000 -0.24125117 0.00000000)
		(-0.16000000 -0.24125117 0.00000000)
		(-0.14000000 -0.24125117 0.00000000)
		(-0.12000000 -0.24125117 0.00000000)
		(-0.10000000 -0.24125117 0.00000000)
		(-0.08162011 -0.24076578 0.00000000)
		(-0.06324022 -0.23930961 0.00000000)
		(-0.04486034 -0.23688267 0.00000000)
		(-0.02648045 -0.23348495 0.00000000)
		(-0.00810056 -0.22911645 0.00000000)
		(0.01027933 -0.22377717 0.00000000)
		(0.02865922 -0.21746711 0.00000000)
		(0.04703911 -0.21018628 0.00000000)
		(0.06541899 -0.20193466 0.00000000)
		(0.08379888 -0.19271227 0.00000000)
		(0.10055866 -0.17848609 0.00000000)
		(0.11731844 -0.16296938 0.00000000)
		(0.13407821 -0.14627433 0.00000000)
		(0.15083799 -0.12852165 0.00000000)
		(0.16759777 -0.10983970 0.00000000)
		(0.18435754 -0.09036356 0.00000000)
		(0.20111732 -0.07023405 0.00000000)
		(0.21787709 -0.04959672 0.00000000)
		(0.23463687 -0.02860078 0.00000000)
		(0.25139665 -0.00739805 0.00000000)
		(0.26815642 0.01385817 0.00000000)
		(0.28491620 0.03501420 0.00000000)
		(0.30167598 0.05591705 0.00000000)
		(0.31843575 0.07641561 0.00000000)
		(0.33519553 0.09636164 0.00000000)
		(0.35195531 0.11561093 0.00000000)
		(0.36871508 0.13402431 0.00000000)
		(0.38547486 0.15146863 0.00000000)
		(0.40223464 0.16781777 0.00000000)
		(0.41899441 0.18295351 0.00000000)
		(0.43575419 0.19676641 0.00000000)
		(0.45251397 0.20915661 0.00000000)
		(0.46927374 0.22003451 0.00000000)
		(0.48603352 0.22932146 0.00000000)
		(0.50279330 0.23695032 0.00000000)
		(0.51955307 0.24286593 0.00000000)
		(0.53631285 0.24702550 0.00000000)
		(0.55307263 0.24939897 0.00000000)
		(0.56983240 0.24996918 0.00000000)
		(0.58659218 0.24873200 0.00000000)
		(0.60335196 0.24569637 0.00000000)
		(0.62011173 0.24088426 0.00000000)
		(0.63687151 0.23433044 0.00000000)
		(0.65363128 0.22608231 0.00000000)
		(0.67039106 0.21619951 0.00000000)
		(0.68715084 0.20475348 0.00000000)
		(0.70391061 0.19182700 0.00000000)
		(0.72067039 0.17751353 0.00000000)
		(0.73743017 0.16191655 0.00000000)
		(0.75418994 0.14514884 0.00000000)
		(0.77094972 0.12733165 0.00000000)
		(0.78770950 0.10859379 0.00000000)
		(0.80446927 0.08907075 0.00000000)
		(0.82122905 0.06890369 0.00000000)
		(0.83798883 0.04823842 0.00000000)
		(0.85474860 0.02722437 0.00000000)
		(0.87150838 0.00601347 0.00000000)
		(0.88826816 -0.01524090 0.00000000)
		(0.90502793 -0.03638508 0.00000000)
		(0.92178771 -0.05726618 0.00000000)
		(0.93854749 -0.07773321 0.00000000)
		(0.95530726 -0.09763820 0.00000000)
		(0.97206704 -0.11683723 0.00000000)
		(0.98882682 -0.13519147 0.00000000)
		(1.00558659 -0.15256821 0.00000000)
		(1.02234637 -0.16884182 0.00000000)
		(1.03910615 -0.18389463 0.00000000)
		(1.05586592 -0.19761780 0.00000000)
		(1.07262570 -0.20991210 0.00000000)
		(1.08938547 -0.22068865 0.00000000)
		(1.10614525 -0.22986952 0.00000000)
		(1.12290503 -0.23738833 0.00000000)
		(1.13966480 -0.24319072 0.00000000)
		(1.15642458 -0.24723473 0.00000000)
		(1.17318436 -0.24949113 0.00000000)
		(1.18994413 -0.24994360 0.00000000)
		(1.20670391 -0.24858886 0.00000000)
		(1.22346369 -0.24543671 0.00000000)
		(1.24022346 -0.24050995 0.00000000)
		(1.25698324 -0.23384420 0.00000000)
		(1.27374302 -0.22548764 0.00000000)
		(1.29050279 -0.21550072 0.00000000)
		(1.30726257 -0.20395562 0.00000000)
		(1.32402235 -0.19093584 0.00000000)
		(1.34078212 -0.17653551 0.00000000)
		(1.35754190 -0.16085875 0.00000000)
		(1.37430168 -0.14401890 0.00000000)
		(1.39106145 -0.12613774 0.00000000)
		(1.40782123 -0.10734454 0.00000000)
		(1.42458101 -0.08777520 0.00000000)
		(1.44134078 -0.06757120 0.00000000)
		(1.45810056 -0.04687864 0.00000000)
		(1.47486034 -0.02584712 0.00000000)
		(1.49162011 -0.00462871 0.00000000)
		(1.50837989 0.01662316 0.00000000)
		(1.52513966 0.03775484 0.00000000)
		(1.54189944 0.05861354 0.00000000)
		(1.55865922 0.07904843 0.00000000)
		(1.57541899 0.09891177 0.00000000)
		(1.59217877 0.11805994 0.00000000)
		(1.60893855 0.13635448 0.00000000)
		(1.62569832 0.15366311 0.00000000)
		(1.64245810 0.16986069 0.00000000)
		(1.65921788 0.18483011 0.00000000)
		(1.67597765 0.19846312 0.00000000)
		(1.69273743 0.21066115 0.00000000)
		(1.70949721 0.22133602 0.00000000)
		(1.72625698 0.23041052 0.00000000)
		(1.74301676 0.23781905 0.00000000)
		(1.75977654 0.24350805 0.00000000)
		(1.77653631 0.24743638 0.00000000)
		(1.79329609 0.24957563 0.00000000)
		(1.81005587 0.24991034 0.00000000)
		(1.82681564 0.24843809 0.00000000)
		(1.84357542 0.24516952 0.00000000)
		(1.86033520 0.24012826 0.00000000)
		(1.87709497 0.23335077 0.00000000)
		(1.89385475 0.22488606 0.00000000)
		(1.91061453 0.21479531 0.00000000)
		(1.92737430 0.20315150 0.00000000)
		(1.94413408 0.19003882 0.00000000)
		(1.96089385 0.17555207 0.00000000)
		(1.97765363 0.15979600 0.00000000)
		(1.99441341 0.14288454 0.00000000)
		(2.01117318 0.12493996 0.00000000)
		(2.02793296 0.10609201 0.00000000)
		(2.04469274 0.08647696 0.00000000)
		(2.06145251 0.06623665 0.00000000)
		(2.07821229 0.04551742 0.00000000)
		(2.09497207 0.02446907 0.00000000)
		(2.11173184 0.00324381 0.00000000)
		(2.12849162 -0.01800491 0.00000000)
		(2.14525140 -0.03912345 0.00000000)
		(2.16201117 -0.05995910 0.00000000)
		(2.17877095 -0.08036123 0.00000000)
		(2.19553073 -0.10018231 0.00000000)
		(2.21229050 -0.11927902 0.00000000)
		(2.22905028 -0.13751330 0.00000000)
		(2.24581006 -0.15475329 0.00000000)
		(2.26256983 -0.17087435 0.00000000)
		(2.27932961 -0.18575991 0.00000000)
		(2.29608939 -0.19930235 0.00000000)
		(2.31284916 -0.21140374 0.00000000)
		(2.32960894 -0.22197659 0.00000000)
		(2.34636872 -0.23094445 0.00000000)
		(2.36312849 -0.23824248 0.00000000)
		(2.37988827 -0.24381791 0.00000000)
		(2.39664804 -0.24763043 0.00000000)
		(2.41340782 -0.24965247 0.00000000)
		(2.43016760 -0.24986941 0.00000000)
		(2.44692737 -0.24827969 0.00000000)
		(2.46368715 -0.24489479 0.00000000)
		(2.48044693 -0.23973920 0.00000000)
		(2.49720670 -0.23285019 0.00000000)
		(2.51396648 -0.22427756 0.00000000)
		(2.53072626 -0.21408332 0.00000000)
		(2.54748603 -0.20234115 0.00000000)
		(2.56424581 -0.18913597 0.00000000)
		(2.58100559 -0.17456325 0.00000000)
		(2.59776536 -0.15872836 0.00000000)
		(2.61452514 -0.14174579 0.00000000)
		(2.63128492 -0.12373834 0.00000000)
		(2.64804469 -0.10483621 0.00000000)
		(2.66480447 -0.08517607 0.00000000)
		(2.68156425 -0.06490006 0.00000000)
		(2.69832402 -0.04415480 0.00000000)
		(2.71508380 -0.02309028 0.00000000)
		(2.73184358 -0.00185880 0.00000000)
		(2.74860335 0.01938611 0.00000000)
		(2.76536313 0.04049085 0.00000000)
		(2.78212291 0.06130283 0.00000000)
		(2.79888268 0.08167156 0.00000000)
		(2.81564246 0.10144977 0.00000000)
		(2.83240223 0.12049445 0.00000000)
		(2.84916201 0.13866790 0.00000000)
		(2.86592179 0.15583873 0.00000000)
		(2.88268156 0.17188277 0.00000000)
		(2.89944134 0.18668402 0.00000000)
		(2.91620112 0.20013546 0.00000000)
		(2.93296089 0.21213984 0.00000000)
		(2.95166480 0.21821612 0.00000000)
		(2.97036872 0.22365280 0.00000000)
		(2.98907263 0.22844986 0.00000000)
		(3.00777654 0.23260732 0.00000000)
		(3.02648045 0.23612517 0.00000000)
		(3.04518436 0.23900341 0.00000000)
		(3.06388827 0.24124204 0.00000000)
		(3.08259218 0.24284106 0.00000000)
		(3.10129609 0.24380047 0.00000000)
		(3.12000000 0.24412028 0.00000000)
		(3.14000000 0.24412028 0.00000000)
		(3.16000000 0.24412028 0.00000000)
		(3.18000000 0.24412028 0.00000000)
		(3.20000000 0.24412028 0.00000000)
		(3.22000000 0.24412028 0.00000000)
		(3.24000000 0.24412028 0.00000000)
		(3.26000000 0.24412028 0.00000000)
		(3.28000000 0.24412028 0.00000000)
		(3.30000000 0.24412028 0.00000000)
		(3.32000000 0.24412028 0.00000000)
		(3.34000000 0.24412028 0.00000000)
		(3.36000000 0.24412028 0.00000000)
		(3.38000000 0.24412028 0.00000000)
		(3.40000000 0.24412028 0.00000000)
		(3.42000000 0.24412028 0.00000000)
		(3.44000000 0.24412028 0.00000000)
		(3.46000000 0.24412028 0.00000000)
		(3.48000000 0.24412028 0.00000000)
		(3.50000000 0.24412028 0.00000000)
		(3.52000000 0.24412028 0.00000000)
		(3.54000000 0.24412028 0.00000000)
		(3.56000000 0.24412028 0.00000000)
		(3.58000000 0.24412028 0.00000000)
		(3.60000000 0.24412028 0.00000000)
		(3.62000000 0.24412028 0.00000000)
		(3.64000000 0.24412028 0.00000000)
		(3.66000000 0.24412028 0.00000000)
		(3.68000000 0.24412028 0.00000000)
		(3.70000000 0.24412028 0.00000000)
		(3.72000000 0.24412028 0.00000000)
		(3.74000000 0.24412028 0.00000000)
		(3.76000000 0.24412028 0.00000000)
		(3.78000000 0.24412028 0.00000000)
		(3.80000000 0.24412028 0.00000000)
		(3.82000000 0.24412028 0.00000000)
		(3.84000000 0.24412028 0.00000000)
		(3.86000000 0.24412028 0.00000000)
		(3.88000000 0.24412028 0.00000000)
		(3.90000000 0.24412028 0.00000000)
		(3.92000000 0.24412028 0.00000000)
		(3.94000000 0.24412028 0.00000000)
		(3.96000000 0.24412028 0.00000000)
		(3.98000000 0.24412028 0.00000000)
		(4.00000000 0.24412028 0.00000000)
	)
	polyLine 4 5
	(
		(-1.00000000 -0.24125117 0.10000000)
		(-0.98000000 -0.24125117 0.10000000)
		(-0.96000000 -0.24125117 0.10000000)
		(-0.94000000 -0.24125117 0.10000000)
		(-0.92000000 -0.24125117 0.10000000)
		(-0.90000000 -0.24125117 0.10000000)
		(-0.88000000 -0.24125117 0.10000000)
		(-0.86000000 -0.24125117 0.10000000)
		(-0.84000000 -0.24125117 0.10000000)
		(-0.82000000 -0.24125117 0.10000000)
		(-0.80000000 -0.24125117 0.10000000)
		(-0.78000000 -0.24125117 0.10000000)
		(-0.76000000 -0.24125117 0.10000000)
		(-0.74000000 -0.24125117 0.10000000)
		(-0.72000000 -0.24125117 0.10000000)
		(-0.70000000 -0.24125117 0.10000000)
		(-0.68000000 -0.24125117 0.10000000)
		(-0.66000000 -0.24125117 0.10000000)
		(-0.64000000 -0.24125117 0.10000000)
		(-0.62000000 -0.24125117 0.10000000)
		(-0.60000000 -0.24125117 0.10000000)
		(-0.58000000 -0.24125117 0.10000000)
		(-0.56000000 -0.24125117 0.10000000)
		(-0.54000000 -0.24125117 0.10000000)
		(-0.52000000 -0.24125117 0.10000000)
		(-0.50000000 -0.24125117 0.10000000)
		(-0.48000000 -0.24125117 0.10000000)
		(-0.46000000 -0.24125117 0.10000000)
		(-0.44000000 -0.24125117 0.10000000)
		(-0.42000000 -0.24125117 0.10000000)
		(-0.40000000 -0.24125117 0.10000000)
		(-0.38000000 -0.24125117 0.10000000)
		(-0.36000000 -0.24125117 0.10000000)
		(-0.34000000 -0.24125117 0.10000000)
		(-0.32000000 -0.24125117 0.10000000)
		(-0.30000000 -0.24125117 0.10000000)
		(-0.28000000 -0.24125117 0.10000000)
		(-0.26000000 -0.24125117 0.10000000)
		(-0.24000000 -0.24125117 0.10000000)
		(-0.22000000 -0.24125117 0.10000000)
		(-0.20000000 -0.24125117 0.10000000)
		(-0.18000000 -0.24125117 0.10000000)
		(-0.16000000 -0.24125117 0.10000000)
		(-0.14000000 -0.24125117 0.10000000)
		(-0.12000000 -0.24125117 0.10000000)
		(-0.10000000 -0.24125117 0.10000000)
		(-0.08162011 -0.24076578 0.10000000)
		(-0.06324022 -0.23930961 0.10000000)
		(-0.04486034 -0.23688267 0.10000000)
		(-0.02648045 -0.23348495 0.10000000)
		(-0.00810056 -0.22911645 0.10000000)
		(0.01027933 -0.22377717 0.10000000)
		(0.02865922 -0.21746711 0.10000000)
		(0.04703911 -0.21018628 0.10000000)
		(0.06541899 -0.20193466 0.10000000)
		(0.08379888 -0.19271227 0.10000000)
		(0.10055866 -0.17848609 0.10000000)
		(0.11731844 -0.16296938 0.10000000)
		(0.13407821 -0.14627433 0.10000000)
		(0.15083799 -0.12852165 0.10000000)
		(0.16759777 -0.10983970 0.10000000)
		(0.18435754 -0.09036356 0.10000000)
		(0.20111732 -0.07023405 0.10000000)
		(0.21787709 -0.04959672 0.10000000)
		(0.23463687 -0.02860078 0.10000000)
		(0.25139665 -0.00739805 0.10000000)
		(0.26815642 0.01385817 0.10000000)
		(0.28491620 0.03501420 0.10000000)
		(0.30167598 0.05591705 0.10000000)
		(0.31843575 0.07641561 0.10000000)
		(0.33519553 0.09636164 0.10000000)
		(0.35195531 0.11561093 0.10000000)
		(0.36871508 0.13402431 0.10000000)
		(0.38547486 0.15146863 0.10000000)
		(0.40223464 0.16781777 0.10000000)
		(0.41899441 0.18295351 0.10000000)
		(0.43575419 0.19676641 0.10000000)
		(0.45251397 0.20915661 0.10000000)
		(0.46927374 0.22003451 0.10000000)
		(0.48603352 0.22932146 0.10000000)
		(0.50279330 0.23695032 0.10000000)
		(0.51955307 0.24286593 0.10000000)
		(0.53631285 0.24702550 0.10000000)
		(0.55307263 0.24939897 0.10000000)
		(0.56983240 0.24996918 0.10000000)
		(0.58659218 0.24873200 0.10000000)
		(0.60335196 0.24569637 0.10000000)
		(0.62011173 0.24088426 0.10000000)
		(0.63687151 0.23433044 0.10000000)
		(0.65363128 0.22608231 0.10000000)
		(0.67039106 0.21619951 0.10000000)
		(0.68715084 0.20475348 0.10000000)
		(0.70391061 0.19182700 0.10000000)
		(0.72067039 0.17751353 0.10000000)
		(0.73743017 0.16191655 0.10000000)
		(0.75418994 0.14514884 0.10000000)
		(0.77094972 0.12733165 0.10000000)
		(0.78770950 0.10859379 0.10000000)
		(0.80446927 0.08907075 0.10000000)
		(0.82122905 0.06890369 0.10000000)
		(0.83798883 0.04823842 0.10000000)
		(0.85474860 0.02722437 0.10000000)
		(0.87150838 0.00601347 0.10000000)
		(0.88826816 -0.01524090 0.10000000)
		(0.90502793 -0.03638508 0.10000000)
		(0.92178771 -0.05726618 0.10000000)
		(0.93854749 -0.07773321 0.10000000)
		(0.95530726 -0.09763820 0.10000000)
		(0.97206704 -0.11683723 0.10000000)
		(0.98882682 -0.13519147 0.10000000)
		(1.00558659 -0.15256821 0.10000000)
		(1.02234637 -0.16884182 0.10000000)
		(1.03910615 -0.18389463 0.10000000)
		(1.05586592 -0.19761780 0.10000000)
		(1.07262570 -0.20991210 0.10000000)
		(1.08938547 -0.22068865 0.10000000)
		(1.10614525 -0.22986952 0.10000000)
		(1.12290503 -0.23738833 0.10000000)
		(1.13966480 -0.24319072 0.10000000)
		(1.15642458 -0.24723473 0.10000000)
		(1.17318436 -0.24949113 0.10000000)
		(1.18994413 -0.24994360 0.10000000)
		(1.20670391 -0.24858886 0.10000000)
		(1.22346369 -0.24543671 0.10000000)
		(1.24022346 -0.24050995 0.10000000)
		(1.25698324 -0.23384420 0.10000000)
		(1.27374302 -0.22548764 0.10000000)
		(1.29050279 -0.21550072 0.10000000)
		(1.30726257 -0.20395562 0.10000000)
		(1.32402235 -0.19093584 0.10000000)
		(1.34078212 -0.17653551 0.10000000)
		(1.35754190 -0.16085875 0.10000000)
		(1.37430168 -0.14401890 0.10000000)
		(1.39106145 -0.12613774 0.10000000)
		(1.40782123 -0.10734454 0.10000000)
		(1.42458101 -0.08777520 0.10000000)
		(1.44134078 -0.06757120 0.10000000)
		(1.45810056 -0.04687864 0.10000000)
		(1.47486034 -0.02584712 0.10000000)
		(1.49162011 -0.00462871 0.10000000)
		(1.50837989 0.01662316 0.10000000)
		(1.52513966 0.03775484 0.10000000)
		(1.54189944 0.05861354 0.10000000)
		(1.55865922 0.07904843 0.10000000)
		(1.57541899 0.09891177 0.10000000)
		(1.59217877 0.11805994 0.10000000)
		(1.60893855 0.13635448 0.10000000)
		(1.62569832 0.15366311 0.10000000)
		(1.64245810 0.16986069 0.10000000)
		(1.65921788 0.18483011 0.10000000)
		(1.67597765 0.19846312 0.10000000)
		(1.69273743 0.21066115 0.10000000)
		(1.70949721 0.22133602 0.10000000)
		(1.72625698 0.23041052 0.10000000)
		(1.74301676 0.23781905 0.10000000)
		(1.75977654 0.24350805 0.10000000)
		(1.77653631 0.24743638 0.10000000)
		(1.79329609 0.24957563 0.10000000)
		(1.81005587 0.24991034 0.10000000)
		(1.82681564 0.24843809 0.10000000)
		(1.84357542 0.24516952 0.10000000)
		(1.86033520 0.24012826 0.10000000)
		(1.87709497 0.23335077 0.10000000)
		(1.89385475 0.22488606 0.10000000)
		(1.91061453 0.21479531 0.10000000)
		(1.92737430 0.20315150 0.10000000)
		(1.94413408 0.19003882 0.10000000)
		(1.96089385 0.17555207 0.10000000)
		(1.97765363 0.15979600 0.10000000)
		(1.99441341 0.14288454 0.10000000)
		(2.01117318 0.12493996 0.10000000)
		(2.02793296 0.10609201 0.10000000)
		(2.04469274 0.08647696 0.10000000)
		(2.06145251 0.06623665 0.10000000)
		(2.07821229 0.04551742 0.10000000)
		(2.09497207 0.02446907 0.10000000)
		(2.11173184 0.00324381 0.10000000)
		(2.12849162 -0.01800491 0.10000000)
		(2.14525140 -0.03912345 0.10000000)
		(2.16201117 -0.05995910 0.10000000)
		(2.17877095 -0.08036123 0.10000000)
		(2.19553073 -0.10018231 0.10000000)
		(2.21229050 -0.11927902 0.10000000)
		(2.22905028 -0.13751330 0.10000000)
		(2.24581006 -0.15475329 0.10000000)
		(2.26256983 -0.17087435 0.10000000)
		(2.27932961 -0.18575991 0.10000000)
		(2.29608939 -0.19930235 0.10000000)
		(2.31284916 -0.21140374 0.10000000)
		(2.32960894 -0.22197659 0.10000000)
		(2.34636872 -0.23094445 0.10000000)
		(2.36312849 -0.23824248 0.10000000)
		(2.37988827 -0.24381791 0.10000000)
		(2.39664804 -0.24763043 0.10000000)
		(2.41340782 -0.24965247 0.10000000)
		(2.43016760 -0.24986941 0.10000000)
		(2.44692737 -0.24827969 0.10000000)
		(2.46368715 -0.24489479 0.10000000)
		(2.48044693 -0.23973920 0.10000000)
		(2.49720670 -0.23285019 0.10000000)
		(2.51396648 -0.22427756 0.10000000)
		(2.53072626 -0.21408332 0.10000000)
		(2.54748603 -0.20234115 0.10000000)
		(2.56424581 -0.18913597 0.10000000)
		(2.58100559 -0.17456325 0.10000000)
		(2.59776536 -0.15872836 0.10000000)
		(2.61452514 -0.14174579 0.10000000)
		(2.63128492 -0.12373834 0.10000000)
		(2.64804469 -0.10483621 0.10000000)
		(2.66480447 -0.08517607 0.10000000)
		(2.68156425 -0.06490006 0.10000000)
		(2.69832402 -0.04415480 0.10000000)
		(2.71508380 -0.02309028 0.10000000)
		(2.73184358 -0.00185880 0.10000000)
		(2.74860335 0.01938611 0.10000000)
		(2.76536313 0.04049085 0.10000000)
		(2.78212291 0.06130283 0.10000000)
		(2.79888268 0.08167156 0.10000000)
		(2.81564246 0.10144977 0.10000000)
		(2.83240223 0.12049445 0.10000000)
		(2.84916201 0.13866790 0.10000000)
		(2.86592179 0.15583873 0.10000000)
		(2.88268156 0.17188277 0.10000000)
		(2.89944134 0.18668402 0.10000000)
		(2.91620112 0.20013546 0.10000000)
		(2.93296089 0.21213984 0.10000000)
		(2.95166480 0.21821612 0.10000000)
		(2.97036872 0.22365280 0.10000000)
		(2.98907263 0.22844986 0.10000000)
		(3.00777654 0.23260732 0.10000000)
		(3.02648045 0.23612517 0.10000000)
		(3.04518436 0.23900341 0.10000000)
		(3.06388827 0.24124204 0.10000000)
		(3.08259218 0.24284106 0.10000000)
		(3.10129609 0.24380047 0.10000000)
		(3.12000000 0.24412028 0.10000000)
		(3.14000000 0.24412028 0.10000000)
		(3.16000000 0.24412028 0.10000000)
		(3.18000000 0.24412028 0.10000000)
		(3.20000000 0.24412028 0.10000000)
		(3.22000000 0.24412028 0.10000000)
		(3.24000000 0.24412028 0.10000000)
		(3.26000000 0.24412028 0.10000000)
		(3.28000000 0.24412028 0.10000000)
		(3.30000000 0.24412028 0.10000000)
		(3.32000000 0.24412028 0.10000000)
		(3.34000000 0.24412028 0.10000000)
		(3.36000000 0.24412028 0.10000000)
		(3.38000000 0.24412028 0.10000000)
		(3.40000000 0.24412028 0.10000000)
		(3.42000000 0.24412028 0.10000000)
		(3.44000000 0.24412028 0.10000000)
		(3.46000000 0.24412028 0.10000000)
		(3.48000000 0.24412028 0.10000000)
		(3.50000000 0.24412028 0.10000000)
		(3.52000000 0.24412028 0.10000000)
		(3.54000000 0.24412028 0.10000000)
		(3.56000000 0.24412028 0.10000000)
		(3.58000000 0.24412028 0.10000000)
		(3.60000000 0.24412028 0.10000000)
		(3.62000000 0.24412028 0.10000000)
		(3.64000000 0.24412028 0.10000000)
		(3.66000000 0.24412028 0.10000000)
		(3.68000000 0.24412028 0.10000000)
		(3.70000000 0.24412028 0.10000000)
		(3.72000000 0.24412028 0.10000000)
		(3.74000000 0.24412028 0.10000000)
		(3.76000000 0.24412028 0.10000000)
		(3.78000000 0.24412028 0.10000000)
		(3.80000000 0.24412028 0.10000000)
		(3.82000000 0.24412028 0.10000000)
		(3.84000000 0.24412028 0.10000000)
		(3.86000000 0.24412028 0.10000000)
		(3.88000000 0.24412028 0.10000000)
		(3.90000000 0.24412028 0.10000000)
		(3.92000000 0.24412028 0.10000000)
		(3.94000000 0.24412028 0.10000000)
		(3.96000000 0.24412028 0.10000000)
		(3.98000000 0.24412028 0.10000000)
		(4.00000000 0.24412028 0.10000000)
	)
	polyLine 3 2
	(
		(-1.00000000 0.25874883 0.00000000)
		(-0.98000000 0.25487864 0.00000000)
		(-0.96000000 0.25100846 0.00000000)
		(-0.94000000 0.24713827 0.00000000)
		(-0.92000000 0.24326808 0.00000000)
		(-0.90000000 0.23939789 0.00000000)
		(-0.88000000 0.23552771 0.00000000)
		(-0.86000000 0.23165752 0.00000000)
		(-0.84000000 0.22778733 0.00000000)
		(-0.82000000 0.22391715 0.00000000)
		(-0.80000000 0.22004696 0.00000000)
		(-0.78000000 0.21617677 0.00000000)
		(-0.76000000 0.21230659 0.00000000)
		(-0.74000000 0.20843640 0.00000000)
		(-0.72000000 0.20456621 0.00000000)
		(-0.70000000 0.20069603 0.00000000)
		(-0.68000000 0.19682584 0.00000000)
		(-0.66000000 0.19295565 0.00000000)
		(-0.64000000 0.18908546 0.00000000)
		(-0.62000000 0.18521528 0.00000000)
		(-0.60000000 0.18134509 0.00000000)
		(-0.58000000 0.17747490 0.00000000)
		(-0.56000000 0.17360472 0.00000000)
		(-0.54000000 0.16973453 0.00000000)
		(-0.52000000 0.16586434 0.00000000)
		(-0.50000000 0.16199416 0.00000000)
		(-0.48000000 0.15812397 0.00000000)
		(-0.46000000 0.15425378 0.00000000)
		(-0.44000000 0.15038359 0.00000000)
		(-0.42000000 0.14651341 0.00000000)
		(-0.40000000 0.14264322 0.00000000)
		(-0.38000000 0.13877303 0.00000000)
		(-0.36000000 0.13490285 0.00000000)
		(-0.34000000 0.13103266 0.00000000)
		(-0.32000000 0.12716247 0.00000000)
		(-0.30000000 0.12329229 0.00000000)
		(-0.28000000 0.11942210 0.00000000)
		(-0.26000000 0.11555191 0.00000000)
		(-0.24000000 0.11168173 0.00000000)
		(-0.22000000 0.10781154 0.00000000)
		(-0.20000000 0.10394135 0.00000000)
		(-0.18000000 0.10007116 0.00000000)
		(-0.16000000 0.09620098 0.00000000)
		(-0.14000000 0.09233079 0.00000000)
		(-0.12000000 0.08846060 0.00000000)
		(-0.10000000 0.08459042 0.00000000)
		(-0.08162011 0.08130527 0.00000000)
		(-0.06324022 0.08033267 0.00000000)
		(-0.04486034 0.08167261 0.00000000)
		(-0.02648045 0.08532509 0.00000000)
		(-0.00810056 0.09129011 0.00000000)
		(0.01027933 0.09956767 0.00000000)
		(0.02865922 0.11015777 0.00000000)
		(0.04703911 0.12306041 0.00000000)
		(0.06541899 0.13827559 0.00000000)
		(0.08379888 0.15580331 0.00000000)
		(0.10055866 0.18121219 0.00000000)
		(0.11731844 0.20892605 0.00000000)
		(0.13407821 0.23874450 0.00000000)
		(0.15083799 0.27045195 0.00000000)
		(0.16759777 0.30381913 0.00000000)
		(0.18435754 0.33860479 0.00000000)
		(0.20111732 0.37455740 0.00000000)
		(0.21787709 0.41141702 0.00000000)
		(0.23463687 0.44891713 0.00000000)
		(0.25139665 0.48678660 0.00000000)
		(0.26815642 0.52475160 0.00000000)
		(0.28491620 0.56253764 0.00000000)
		(0.30167598 0.59987151 0.00000000)
		(0.31843575 0.63648326 0.00000000)
		(0.33519553 0.67210817 0.00000000)
		(0.35195531 0.70648867 0.00000000)
		(0.36871508 0.73937616 0.00000000)
		(0.38547486 0.77053286 0.00000000)
		(0.40223464 0.79973348 0.00000000)
		(0.41899441 0.82676690 0.00000000)
		(0.43575419 0.85143765 0.00000000)
		(0.45251397 0.87356735 0.00000000)
		(0.46927374 0.89299599 0.00000000)
		(0.48603352 0.90958310 0.00000000)
		(0.50279330 0.92320874 0.00000000)
		(0.51955307 0.93377439 0.00000000)
		(0.53631285 0.94120366 0.00000000)
		(0.55307263 0.94544284 0.00000000)
		(0.56983240 0.94646126 0.00000000)
		(0.58659218 0.94425158 0.00000000)
		(0.60335196 0.93882976 0.00000000)
		(0.62011173 0.93023500 0.00000000)
		(0.63687151 0.91852946 0.00000000)
		(0.65363128 0.90379776 0.00000000)
		(0.67039106 0.88614642 0.00000000)
		(0.68715084 0.86570308 0.00000000)
		(0.70391061 0.84261554 0.00000000)
		(0.72067039 0.81705074 0.00000000)
		(0.73743017 0.78919352 0.00000000)
		(0.75418994 0.75924530 0.00000000)
		(0.77094972 0.72742263 0.00000000)
		(0.78770950 0.69395559 0.00000000)
		(0.80446927 0.65908617 0.00000000)
		(0.82122905 0.62306648 0.00000000)
		(0.83798883 0.58615696 0.00000000)
		(0.85474860 0.54862450 0.00000000)
		(0.87150838 0.51074046 0.00000000)
		(0.88826816 0.47277875 0.00000000)
		(0.90502793 0.43501387 0.00000000)
		(0.92178771 0.39771887 0.00000000)
		(0.93854749 0.36116341 0.00000000)
		(0.95530726 0.32561180 0.00000000)
		(0.97206704 0.29132109 0.00000000)
		(0.98882682 0.25853922 0.00000000)
		(1.00558659 0.22750322 0.00000000)
		(1.02234637 0.19843749 0.00000000)
		(1.03910615 0.17155219 0.00000000)
		(1.05586592 0.14704172 0.00000000)
		(1.07262570 0.12508329 0.00000000)
		(1.08938547 0.10583567 0.00000000)
		(1.10614525 0.08943804 0.00000000)
		(1.12290503 0.07600895 0.00000000)
		(1.13966480 0.06564551 0.00000000)
		(1.15642458 0.05842263 0.00000000)
		(1.17318436 0.05439256 0.00000000)
		(1.18994413 0.05358443 0.00000000)
		(1.20670391 0.05600408 0.00000000)
		(1.22346369 0.06163402 0.00000000)
		(1.24022346 0.07043354 0.00000000)
		(1.25698324 0.08233901 0.00000000)
		(1.27374302 0.09726436 0.00000000)
		(1.29050279 0.11510166 0.00000000)
		(1.30726257 0.13572195 0.00000000)
		(1.32402235 0.15897613 0.00000000)
		(1.34078212 0.18469606 0.00000000)
		(1.35754190 0.21269579 0.00000000)
		(1.37430168 0.24277284 0.00000000)
		(1.39106145 0.27470977 0.00000000)
		(1.40782123 0.30827564 0.00000000)
		(1.42458101 0.34322776 0.00000000)
		(1.44134078 0.37931342 0.00000000)
		(1.45810056 0.41627169 0.00000000)
		(1.47486034 0.45383536 0.00000000)
		(1.49162011 0.49173282 0.00000000)
		(1.50837989 0.52969005 0.00000000)
		(1.52513966 0.56743261 0.00000000)
		(1.54189944 0.60468761 0.00000000)
		(1.55865922 0.64118566 0.00000000)
		(1.57541899 0.67666288 0.00000000)
		(1.59217877 0.71086275 0.00000000)
		(1.60893855 0.74353799 0.00000000)
		(1.62569832 0.77445234 0.00000000)
		(1.64245810 0.80338228 0.00000000)
		(1.65921788 0.83011863 0.00000000)
		(1.67597765 0.85446808 0.00000000)
		(1.69273743 0.87625457 0.00000000)
		(1.70949721 0.89532057 0.00000000)
		(1.72625698 0.91152822 0.00000000)
		(1.74301676 0.92476035 0.00000000)
		(1.75977654 0.93492127 0.00000000)
		(1.77653631 0.94193751 0.00000000)
		(1.79329609 0.94575836 0.00000000)
		(1.81005587 0.94635617 0.00000000)
		(1.82681564 0.94372663 0.00000000)
		(1.84357542 0.93788875 0.00000000)
		(1.86033520 0.92888474 0.00000000)
		(1.87709497 0.91677971 0.00000000)
		(1.89385475 0.90166117 0.00000000)
		(1.91061453 0.88363844 0.00000000)
		(1.92737430 0.86284184 0.00000000)
		(1.94413408 0.83942173 0.00000000)
		(1.96089385 0.81354745 0.00000000)
		(1.97765363 0.78540609 0.00000000)
		(1.99441341 0.75520111 0.00000000)
		(2.01117318 0.72315092 0.00000000)
		(2.02793296 0.68948724 0.00000000)
		(2.04469274 0.65445349 0.00000000)
		(2.06145251 0.61830298 0.00000000)
		(2.07821229 0.58129708 0.00000000)
		(2.09497207 0.54370336 0.00000000)
		(2.11173184 0.50579365 0.00000000)
		(2.12849162 0.46784205 0.00000000)
		(2.14525140 0.43012297 0.00000000)
		(2.16201117 0.39290913 0.00000000)
		(2.17877095 0.35646960 0.00000000)
		(2.19553073 0.32106786 0.00000000)
		(2.21229050 0.28695988 0.00000000)
		(2.22905028 0.25439227 0.00000000)
		(2.24581006 0.22360052 0.00000000)
		(2.26256983 0.19480726 0.00000000)
		(2.27932961 0.16822067 0.00000000)
		(2.29608939 0.14403300 0.00000000)
		(2.31284916 0.12241913 0.00000000)
		(2.32960894 0.10353533 0.00000000)
		(2.34636872 0.08751815 0.00000000)
		(2.36312849 0.07448339 0.00000000)
		(2.37988827 0.06452531 0.00000000)
		(2.39664804 0.05771590 0.00000000)
		(2.41340782 0.05410440 0.00000000)
		(2.43016760 0.05371693 0.00000000)
		(2.44692737 0.05655628 0.00000000)
		(2.46368715 0.06260192 0.00000000)
		(2.48044693 0.07181015 0.00000000)
		(2.49720670 0.08411437 0.00000000)
		(2.51396648 0.09942564 0.00000000)