/*--------------------------------*- C++ -*----------------------------------*\\
/*--------------------------------*- C++ -*----------------------------------*\\
| =========                 |                                                 |
| \\\\      /  F ield         | OpenFOAM: The Open Source CFD Toolbox           |
|  \\\\    /   O peration     | Version:  v2012                                 |
|   \\\\  /    A nd           | Website:  www.openfoam.com                      |
|    \\\\/     M anipulation  |                                                 |
\\*---------------------------------------------------------------------------*/
FoamFile
{
    version     2.0;
    format      ascii;
    class       dictionary;
    object      blockMeshDict;
}
// * * * * * * * * * * * * * * * * * * * * * * * * * * * * * * * * * * * * * //

scale   0.01;

xmin -1;
xmax 5;
ymin 0;
ymax 0.5;
zmin 0;
zmax 0.1;

vertices
(
    (-1.00000000 0.22793799 0.00000000)
    (4.00000000 0.09267846 0.00000000)
    (4.00000000 0.59267846 0.00000000)
    (-1.00000000 0.72793799 0.00000000)
    (-1.00000000 0.22793799 0.10000000)
    (4.00000000 0.09267846 0.10000000)
    (4.00000000 0.59267846 0.10000000)
    (-1.00000000 0.72793799 0.10000000)
);

blocks
(
    hex (0 1 2 3 4 5 6 7) (200 20 1) simpleGrading (1 1 1)
);

edges
(
	polyLine 0 1
	(
		(-1.00000000 0.22793799 0.00000000)
		(-0.98000000 0.22793799 0.00000000)
		(-0.96000000 0.22793799 0.00000000)
		(-0.94000000 0.22793799 0.00000000)
		(-0.92000000 0.22793799 0.00000000)
		(-0.90000000 0.22793799 0.00000000)
		(-0.88000000 0.22793799 0.00000000)
		(-0.86000000 0.22793799 0.00000000)
		(-0.84000000 0.22793799 0.00000000)
		(-0.82000000 0.22793799 0.00000000)
		(-0.80000000 0.22793799 0.00000000)
		(-0.78000000 0.22793799 0.00000000)
		(-0.76000000 0.22793799 0.00000000)
		(-0.74000000 0.22793799 0.00000000)
		(-0.72000000 0.22793799 0.00000000)
		(-0.70000000 0.22793799 0.00000000)
		(-0.68000000 0.22793799 0.00000000)
		(-0.66000000 0.22793799 0.00000000)
		(-0.64000000 0.22793799 0.00000000)
		(-0.62000000 0.22793799 0.00000000)
		(-0.60000000 0.22793799 0.00000000)
		(-0.58000000 0.22793799 0.00000000)
		(-0.56000000 0.22793799 0.00000000)
		(-0.54000000 0.22793799 0.00000000)
		(-0.52000000 0.22793799 0.00000000)
		(-0.50000000 0.22793799 0.00000000)
		(-0.48000000 0.22793799 0.00000000)
		(-0.46000000 0.22793799 0.00000000)
		(-0.44000000 0.22793799 0.00000000)
		(-0.42000000 0.22793799 0.00000000)
		(-0.40000000 0.22793799 0.00000000)
		(-0.38000000 0.22793799 0.00000000)
		(-0.36000000 0.22793799 0.00000000)
		(-0.34000000 0.22793799 0.00000000)
		(-0.32000000 0.22793799 0.00000000)
		(-0.30000000 0.22793799 0.00000000)
		(-0.28000000 0.22793799 0.00000000)
		(-0.26000000 0.22793799 0.00000000)
		(-0.24000000 0.22793799 0.00000000)
		(-0.22000000 0.22793799 0.00000000)
		(-0.20000000 0.22793799 0.00000000)
		(-0.18000000 0.22793799 0.00000000)
		(-0.16000000 0.22793799 0.00000000)
		(-0.14000000 0.22793799 0.00000000)
		(-0.12000000 0.22793799 0.00000000)
		(-0.10000000 0.22793799 0.00000000)
		(-0.08162011 0.22815769 0.00000000)
		(-0.06324022 0.22881678 0.00000000)
		(-0.04486034 0.22991527 0.00000000)
		(-0.02648045 0.23145316 0.00000000)
		(-0.00810056 0.23343044 0.00000000)
		(0.01027933 0.23584712 0.00000000)
		(0.02865922 0.23870320 0.00000000)
		(0.04703911 0.24199867 0.00000000)
		(0.06541899 0.24573354 0.00000000)
		(0.08379888 0.24990780 0.00000000)
		(0.10055866 0.24966127 0.00000000)
		(0.11731844 0.24784866 0.00000000)
		(0.13407821 0.24448135 0.00000000)
		(0.15083799 0.23958048 0.00000000)
		(0.16759777 0.23317676 0.00000000)
		(0.18435754 0.22531038 0.00000000)
		(0.20111732 0.21603069 0.00000000)
		(0.21787709 0.20539588 0.00000000)
		(0.23463687 0.19347267 0.00000000)
		(0.25139665 0.18033585 0.00000000)
		(0.26815642 0.16606782 0.00000000)
		(0.28491620 0.15075809 0.00000000)
		(0.30167598 0.13450269 0.00000000)
		(0.31843575 0.11740358 0.00000000)
		(0.33519553 0.09956803 0.00000000)
		(0.35195531 0.08110791 0.00000000)
		(0.36871508 0.06213901 0.00000000)
		(0.38547486 0.04278034 0.00000000)
		(0.40223464 0.02315331 0.00000000)
		(0.41899441 0.00338105 0.00000000)
		(0.43575419 -0.01641242 0.00000000)
		(0.45251397 -0.03610294 0.00000000)
		(0.46927374 -0.05556699 0.00000000)
		(0.48603352 -0.07468249 0.00000000)
		(0.50279330 -0.09332952 0.00000000)
		(0.51955307 -0.11139111 0.00000000)
		(0.53631285 -0.12875397 0.00000000)
		(0.55307263 -0.14530919 0.00000000)
		(0.56983240 -0.16095292 0.00000000)
		(0.58659218 -0.17558703 0.00000000)
		(0.60335196 -0.18911972 0.00000000)
		(0.62011173 -0.20146610 0.00000000)
		(0.63687151 -0.21254873 0.00000000)
		(0.65363128 -0.22229810 0.00000000)
		(0.67039106 -0.23065304 0.00000000)
		(0.68715084 -0.23756114 0.00000000)
		(0.70391061 -0.24297908 0.00000000)
		(0.72067039 -0.24687287 0.00000000)
		(0.73743017 -0.24921808 0.00000000)
		(0.75418994 -0.25000000 0.00000000)
		(0.77094972 -0.24921373 0.00000000)
		(0.78770950 -0.24686419 0.00000000)
		(0.80446927 -0.24296614 0.00000000)
		(0.82122905 -0.23754401 0.00000000)
		(0.83798883 -0.23063183 0.00000000)
		(0.85474860 -0.22227294 0.00000000)
		(0.87150838 -0.21251979 0.00000000)
		(0.88826816 -0.20143355 0.00000000)
		(0.90502793 -0.18908376 0.00000000)
		(0.92178771 -0.17554789 0.00000000)
		(0.93854749 -0.16091086 0.00000000)
		(0.95530726 -0.14526446 0.00000000)
		(0.97206704 -0.12870685 0.00000000)
		(0.98882682 -0.11134190 0.00000000)
		(1.00558659 -0.09327852 0.00000000)
		(1.02234637 -0.07463003 0.00000000)
		(1.03910615 -0.05551340 0.00000000)
		(1.05586592 -0.03604855 0.00000000)
		(1.07262570 -0.01635757 0.00000000)
		(1.08938547 0.00343601 0.00000000)
		(1.10614525 0.02320804 0.00000000)
		(1.12290503 0.04283449 0.00000000)
		(1.13966480 0.06219225 0.00000000)
		(1.15642458 0.08115990 0.00000000)
		(1.17318436 0.09961844 0.00000000)
		(1.18994413 0.11745210 0.00000000)
		(1.20670391 0.13454902 0.00000000)
		(1.22346369 0.15080193 0.00000000)
		(1.24022346 0.16610890 0.00000000)
		(1.25698324 0.18037391 0.00000000)
		(1.27374302 0.19350747 0.00000000)
		(1.29050279 0.20542721 0.00000000)
		(1.30726257 0.21605834 0.00000000)
		(1.32402235 0.22533420 0.00000000)
		(1.34078212 0.23319658 0.00000000)
		(1.35754190 0.23959617 0.00000000)
		(1.37430168 0.24449283 0.00000000)
		(1.39106145 0.24785585 0.00000000)
		(1.40782123 0.24966412 0.00000000)
		(1.42458101 0.24990630 0.00000000)
		(1.44134078 0.24858088 0.00000000)
		(1.45810056 0.24569617 0.00000000)
		(1.47486034 0.24127027 0.00000000)
		(1.49162011 0.23533093 0.00000000)
		(1.50837989 0.22791541 0.00000000)
		(1.52513966 0.21907023 0.00000000)
		(1.54189944 0.20885087 0.00000000)
		(1.55865922 0.19732144 0.00000000)
		(1.57541899 0.18455426 0.00000000)
		(1.59217877 0.17062941 0.00000000)
		(1.60893855 0.15563425 0.00000000)
		(1.62569832 0.13966282 0.00000000)
		(1.64245810 0.12281532 0.00000000)
		(1.65921788 0.10519743 0.00000000)
		(1.67597765 0.08691966 0.00000000)
		(1.69273743 0.06809666 0.00000000)
		(1.70949721 0.04884651 0.00000000)
		(1.72625698 0.02928995 0.00000000)
		(1.74301676 0.00954967 0.00000000)
		(1.75977654 -0.01025052 0.00000000)
		(1.77653631 -0.02998641 0.00000000)
		(1.79329609 -0.04953420 0.00000000)
		(1.81005587 -0.06877127 0.00000000)
		(1.82681564 -0.08757696 0.00000000)
		(1.84357542 -0.10583330 0.00000000)
		(1.86033520 -0.12342577 0.00000000)
		(1.87709497 -0.14024401 0.00000000)
		(1.89385475 -0.15618254 0.00000000)
		(1.91061453 -0.17114138 0.00000000)
		(1.92737430 -0.18502668 0.00000000)
		(1.94413408 -0.19775135 0.00000000)
		(1.96089385 -0.20923557 0.00000000)
		(1.97765363 -0.21940730 0.00000000)
		(1.99441341 -0.22820275 0.00000000)
		(2.01117318 -0.23556673 0.00000000)
		(2.02793296 -0.24145305 0.00000000)
		(2.04469274 -0.24582479 0.00000000)
		(2.06145251 -0.24865453 0.00000000)
		(2.07821229 -0.24992452 0.00000000)
		(2.09497207 -0.24962679 0.00000000)
		(2.11173184 -0.24776321 0.00000000)
		(2.12849162 -0.24434546 0.00000000)
		(2.14525140 -0.23939499 0.00000000)
		(2.16201117 -0.23294286 0.00000000)
		(2.17877095 -0.22502952 0.00000000)
		(2.19553073 -0.21570463 0.00000000)
		(2.21229050 -0.20502667 0.00000000)
		(2.22905028 -0.19306262 0.00000000)
		(2.24581006 -0.17988754 0.00000000)
		(2.26256983 -0.16558406 0.00000000)
		(2.27932961 -0.15024191 0.00000000)
		(2.29608939 -0.13395733 0.00000000)
		(2.31284916 -0.11683247 0.00000000)
		(2.32960894 -0.09897474 0.00000000)
		(2.34636872 -0.08049617 0.00000000)
		(2.36312849 -0.06151266 0.00000000)
		(2.37988827 -0.04214330 0.00000000)
		(2.39664804 -0.02250958 0.00000000)
		(2.41340782 -0.00273466 0.00000000)
		(2.43016760 0.01705741 0.00000000)
		(2.44692737 0.03674248 0.00000000)
		(2.46368715 0.05619707 0.00000000)
		(2.48044693 0.07529916 0.00000000)
		(2.49720670 0.09392890 0.00000000)
		(2.51396648 0.11196946 0.00000000)
		(2.53072626 0.12930765 0.00000000)
		(2.54748603 0.14583473 0.00000000)
		(2.56424581 0.16144702 0.00000000)
		(2.58100559 0.17604659 0.00000000)
		(2.59776536 0.18954186 0.00000000)
		(2.61452514 0.20184818 0.00000000)
		(2.63128492 0.21288835 0.00000000)
		(2.64804469 0.22259312 0.00000000)
		(2.66480447 0.23090161 0.00000000)
		(2.68156425 0.23776172 0.00000000)
		(2.69832402 0.24313039 0.00000000)
		(2.71508380 0.24697397 0.00000000)
		(2.73184358 0.24926833 0.00000000)
		(2.74860335 0.24999909 0.00000000)
		(2.76536313 0.24916167 0.00000000)
		(2.78212291 0.24676130 0.00000000)
		(2.79888268 0.24281307 0.00000000)
		(2.81564246 0.23734172 0.00000000)
		(2.83240223 0.23038158 0.00000000)
		(2.84916201 0.22197631 0.00000000)
		(2.86592179 0.21217863 0.00000000)
		(2.88268156 0.20105001 0.00000000)
		(2.89944134 0.18866024 0.00000000)
		(2.91620112 0.17508705 0.00000000)
		(2.93296089 0.16041559 0.00000000)
		(2.95166480 0.14754553 0.00000000)
		(2.97036872 0.13603022 0.00000000)
		(2.98907263 0.12586965 0.00000000)
		(3.00777654 0.11706382 0.00000000)
		(3.02648045 0.10961274 0.00000000)
		(3.04518436 0.10351640 0.00000000)
		(3.06388827 0.09877480 0.00000000)
		(3.08259218 0.09538794 0.00000000)
		(3.10129609 0.09335583 0.00000000)
		(3.12000000 0.09267846 0.00000000)
		(3.14000000 0.09267846 0.00000000)
		(3.16000000 0.09267846 0.00000000)
		(3.18000000 0.09267846 0.00000000)
		(3.20000000 0.09267846 0.00000000)
		(3.22000000 0.09267846 0.00000000)
		(3.24000000 0.09267846 0.00000000)
		(3.26000000 0.09267846 0.00000000)
		(3.28000000 0.09267846 0.00000000)
		(3.30000000 0.09267846 0.00000000)
		(3.32000000 0.09267846 0.00000000)
		(3.34000000 0.09267846 0.00000000)
		(3.36000000 0.09267846 0.00000000)
		(3.38000000 0.09267846 0.00000000)
		(3.40000000 0.09267846 0.00000000)
		(3.42000000 0.09267846 0.00000000)
		(3.44000000 0.09267846 0.00000000)
		(3.46000000 0.09267846 0.00000000)
		(3.48000000 0.09267846 0.00000000)
		(3.50000000 0.09267846 0.00000000)
		(3.52000000 0.09267846 0.00000000)
		(3.54000000 0.09267846 0.00000000)
		(3.56000000 0.09267846 0.00000000)
		(3.58000000 0.09267846 0.00000000)
		(3.60000000 0.09267846 0.00000000)
		(3.62000000 0.09267846 0.00000000)
		(3.64000000 0.09267846 0.00000000)
		(3.66000000 0.09267846 0.00000000)
		(3.68000000 0.09267846 0.00000000)
		(3.70000000 0.09267846 0.00000000)
		(3.72000000 0.09267846 0.00000000)
		(3.74000000 0.09267846 0.00000000)
		(3.76000000 0.09267846 0.00000000)
		(3.78000000 0.09267846 0.00000000)
		(3.80000000 0.09267846 0.00000000)
		(3.82000000 0.09267846 0.00000000)
		(3.84000000 0.09267846 0.00000000)
		(3.86000000 0.09267846 0.00000000)
		(3.88000000 0.09267846 0.00000000)
		(3.90000000 0.09267846 0.00000000)
		(3.92000000 0.09267846 0.00000000)
		(3.94000000 0.09267846 0.00000000)
		(3.96000000 0.09267846 0.00000000)
		(3.98000000 0.09267846 0.00000000)
		(4.00000000 0.09267846 0.00000000)
	)
	polyLine 4 5
	(
		(-1.00000000 0.22793799 0.10000000)
		(-0.98000000 0.22793799 0.10000000)
		(-0.96000000 0.22793799 0.10000000)
		(-0.94000000 0.22793799 0.10000000)
		(-0.92000000 0.22793799 0.10000000)
		(-0.90000000 0.22793799 0.10000000)
		(-0.88000000 0.22793799 0.10000000)
		(-0.86000000 0.22793799 0.10000000)
		(-0.84000000 0.22793799 0.10000000)
		(-0.82000000 0.22793799 0.10000000)
		(-0.80000000 0.22793799 0.10000000)
		(-0.78000000 0.22793799 0.10000000)
		(-0.76000000 0.22793799 0.10000000)
		(-0.74000000 0.22793799 0.10000000)
		(-0.72000000 0.22793799 0.10000000)
		(-0.70000000 0.22793799 0.10000000)
		(-0.68000000 0.22793799 0.10000000)
		(-0.66000000 0.22793799 0.10000000)
		(-0.64000000 0.22793799 0.10000000)
		(-0.62000000 0.22793799 0.10000000)
		(-0.60000000 0.22793799 0.10000000)
		(-0.58000000 0.22793799 0.10000000)
		(-0.56000000 0.22793799 0.10000000)
		(-0.54000000 0.22793799 0.10000000)
		(-0.52000000 0.22793799 0.10000000)
		(-0.50000000 0.22793799 0.10000000)
		(-0.48000000 0.22793799 0.10000000)
		(-0.46000000 0.22793799 0.10000000)
		(-0.44000000 0.22793799 0.10000000)
		(-0.42000000 0.22793799 0.10000000)
		(-0.40000000 0.22793799 0.10000000)
		(-0.38000000 0.22793799 0.10000000)
		(-0.36000000 0.22793799 0.10000000)
		(-0.34000000 0.22793799 0.10000000)
		(-0.32000000 0.22793799 0.10000000)
		(-0.30000000 0.22793799 0.10000000)
		(-0.28000000 0.22793799 0.10000000)
		(-0.26000000 0.22793799 0.10000000)
		(-0.24000000 0.22793799 0.10000000)
		(-0.22000000 0.22793799 0.10000000)
		(-0.20000000 0.22793799 0.10000000)
		(-0.18000000 0.22793799 0.10000000)
		(-0.16000000 0.22793799 0.10000000)
		(-0.14000000 0.22793799 0.10000000)
		(-0.12000000 0.22793799 0.10000000)
		(-0.10000000 0.22793799 0.10000000)
		(-0.08162011 0.22815769 0.10000000)
		(-0.06324022 0.22881678 0.10000000)
		(-0.04486034 0.22991527 0.10000000)
		(-0.02648045 0.23145316 0.10000000)
		(-0.00810056 0.23343044 0.10000000)
		(0.01027933 0.23584712 0.10000000)
		(0.02865922 0.23870320 0.10000000)
		(0.04703911 0.24199867 0.10000000)
		(0.06541899 0.24573354 0.10000000)
		(0.08379888 0.24990780 0.10000000)
		(0.10055866 0.24966127 0.10000000)
		(0.11731844 0.24784866 0.10000000)
		(0.13407821 0.24448135 0.10000000)
		(0.15083799 0.23958048 0.10000000)
		(0.16759777 0.23317676 0.10000000)
		(0.18435754 0.22531038 0.10000000)
		(0.20111732 0.21603069 0.10000000)
		(0.21787709 0.20539588 0.10000000)
		(0.23463687 0.19347267 0.10000000)
		(0.25139665 0.18033585 0.10000000)
		(0.26815642 0.16606782 0.10000000)
		(0.28491620 0.15075809 0.10000000)
		(0.30167598 0.13450269 0.10000000)
		(0.31843575 0.11740358 0.10000000)
		(0.33519553 0.09956803 0.10000000)
		(0.35195531 0.08110791 0.10000000)
		(0.36871508 0.06213901 0.10000000)
		(0.38547486 0.04278034 0.10000000)
		(0.40223464 0.02315331 0.10000000)
		(0.41899441 0.00338105 0.10000000)
		(0.43575419 -0.01641242 0.10000000)
		(0.45251397 -0.03610294 0.10000000)
		(0.46927374 -0.05556699 0.10000000)
		(0.48603352 -0.07468249 0.10000000)
		(0.50279330 -0.09332952 0.10000000)
		(0.51955307 -0.11139111 0.10000000)
		(0.53631285 -0.12875397 0.10000000)
		(0.55307263 -0.14530919 0.10000000)
		(0.56983240 -0.16095292 0.10000000)
		(0.58659218 -0.17558703 0.10000000)
		(0.60335196 -0.18911972 0.10000000)
		(0.62011173 -0.20146610 0.10000000)
		(0.63687151 -0.21254873 0.10000000)
		(0.65363128 -0.22229810 0.10000000)
		(0.67039106 -0.23065304 0.10000000)
		(0.68715084 -0.23756114 0.10000000)
		(0.70391061 -0.24297908 0.10000000)
		(0.72067039 -0.24687287 0.10000000)
		(0.73743017 -0.24921808 0.10000000)
		(0.75418994 -0.25000000 0.10000000)
		(0.77094972 -0.24921373 0.10000000)
		(0.78770950 -0.24686419 0.10000000)
		(0.80446927 -0.24296614 0.10000000)
		(0.82122905 -0.23754401 0.10000000)
		(0.83798883 -0.23063183 0.10000000)
		(0.85474860 -0.22227294 0.10000000)
		(0.87150838 -0.21251979 0.10000000)
		(0.88826816 -0.20143355 0.10000000)
		(0.90502793 -0.18908376 0.10000000)
		(0.92178771 -0.17554789 0.10000000)
		(0.93854749 -0.16091086 0.10000000)
		(0.95530726 -0.14526446 0.10000000)
		(0.97206704 -0.12870685 0.10000000)
		(0.98882682 -0.11134190 0.10000000)
		(1.00558659 -0.09327852 0.10000000)
		(1.02234637 -0.07463003 0.10000000)
		(1.03910615 -0.05551340 0.10000000)
		(1.05586592 -0.03604855 0.10000000)
		(1.07262570 -0.01635757 0.10000000)
		(1.08938547 0.00343601 0.10000000)
		(1.10614525 0.02320804 0.10000000)
		(1.12290503 0.04283449 0.10000000)
		(1.13966480 0.06219225 0.10000000)
		(1.15642458 0.08115990 0.10000000)
		(1.17318436 0.09961844 0.10000000)
		(1.18994413 0.11745210 0.10000000)
		(1.20670391 0.13454902 0.10000000)
		(1.22346369 0.15080193 0.10000000)
		(1.24022346 0.16610890 0.10000000)
		(1.25698324 0.18037391 0.10000000)
		(1.27374302 0.19350747 0.10000000)
		(1.29050279 0.20542721 0.10000000)
		(1.30726257 0.21605834 0.10000000)
		(1.32402235 0.22533420 0.10000000)
		(1.34078212 0.23319658 0.10000000)
		(1.35754190 0.23959617 0.10000000)
		(1.37430168 0.24449283 0.10000000)
		(1.39106145 0.24785585 0.10000000)
		(1.40782123 0.24966412 0.10000000)
		(1.42458101 0.24990630 0.10000000)
		(1.44134078 0.24858088 0.10000000)
		(1.45810056 0.24569617 0.10000000)
		(1.47486034 0.24127027 0.10000000)
		(1.49162011 0.23533093 0.10000000)
		(1.50837989 0.22791541 0.10000000)
		(1.52513966 0.21907023 0.10000000)
		(1.54189944 0.20885087 0.10000000)
		(1.55865922 0.19732144 0.10000000)
		(1.57541899 0.18455426 0.10000000)
		(1.59217877 0.17062941 0.10000000)
		(1.60893855 0.15563425 0.10000000)
		(1.62569832 0.13966282 0.10000000)
		(1.64245810 0.12281532 0.10000000)
		(1.65921788 0.10519743 0.10000000)
		(1.67597765 0.08691966 0.10000000)
		(1.69273743 0.06809666 0.10000000)
		(1.70949721 0.04884651 0.10000000)
		(1.72625698 0.02928995 0.10000000)
		(1.74301676 0.00954967 0.10000000)
		(1.75977654 -0.01025052 0.10000000)
		(1.77653631 -0.02998641 0.10000000)
		(1.79329609 -0.04953420 0.10000000)
		(1.81005587 -0.06877127 0.10000000)
		(1.82681564 -0.08757696 0.10000000)
		(1.84357542 -0.10583330 0.10000000)
		(1.86033520 -0.12342577 0.10000000)
		(1.87709497 -0.14024401 0.10000000)
		(1.89385475 -0.15618254 0.10000000)
		(1.91061453 -0.17114138 0.10000000)
		(1.92737430 -0.18502668 0.10000000)
		(1.94413408 -0.19775135 0.10000000)
		(1.96089385 -0.20923557 0.10000000)
		(1.97765363 -0.21940730 0.10000000)
		(1.99441341 -0.22820275 0.10000000)
		(2.01117318 -0.23556673 0.10000000)
		(2.02793296 -0.24145305 0.10000000)
		(2.04469274 -0.24582479 0.10000000)
		(2.06145251 -0.24865453 0.10000000)
		(2.07821229 -0.24992452 0.10000000)
		(2.09497207 -0.24962679 0.10000000)
		(2.11173184 -0.24776321 0.10000000)
		(2.12849162 -0.24434546 0.10000000)
		(2.14525140 -0.23939499 0.10000000)
		(2.16201117 -0.23294286 0.10000000)
		(2.17877095 -0.22502952 0.10000000)
		(2.19553073 -0.21570463 0.10000000)
		(2.21229050 -0.20502667 0.10000000)
		(2.22905028 -0.19306262 0.10000000)
		(2.24581006 -0.17988754 0.10000000)
		(2.26256983 -0.16558406 0.10000000)
		(2.27932961 -0.15024191 0.10000000)
		(2.29608939 -0.13395733 0.10000000)
		(2.31284916 -0.11683247 0.10000000)
		(2.32960894 -0.09897474 0.10000000)
		(2.34636872 -0.08049617 0.10000000)
		(2.36312849 -0.06151266 0.10000000)
		(2.37988827 -0.04214330 0.10000000)
		(2.39664804 -0.02250958 0.10000000)
		(2.41340782 -0.00273466 0.10000000)
		(2.43016760 0.01705741 0.10000000)
		(2.44692737 0.03674248 0.10000000)
		(2.46368715 0.05619707 0.10000000)
		(2.48044693 0.07529916 0.10000000)
		(2.49720670 0.09392890 0.10000000)
		(2.51396648 0.11196946 0.10000000)
		(2.53072626 0.12930765 0.10000000)
		(2.54748603 0.14583473 0.10000000)
		(2.56424581 0.16144702 0.10000000)
		(2.58100559 0.17604659 0.10000000)
		(2.59776536 0.18954186 0.10000000)
		(2.61452514 0.20184818 0.10000000)
		(2.63128492 0.21288835 0.10000000)
		(2.64804469 0.22259312 0.10000000)
		(2.66480447 0.23090161 0.10000000)
		(2.68156425 0.23776172 0.10000000)
		(2.69832402 0.24313039 0.10000000)
		(2.71508380 0.24697397 0.10000000)
		(2.73184358 0.24926833 0.10000000)
		(2.74860335 0.24999909 0.10000000)
		(2.76536313 0.24916167 0.10000000)
		(2.78212291 0.24676130 0.10000000)
		(2.79888268 0.24281307 0.10000000)
		(2.81564246 0.23734172 0.10000000)
		(2.83240223 0.23038158 0.10000000)
		(2.84916201 0.22197631 0.10000000)
		(2.86592179 0.21217863 0.10000000)
		(2.88268156 0.20105001 0.10000000)
		(2.89944134 0.18866024 0.10000000)
		(2.91620112 0.17508705 0.10000000)
		(2.93296089 0.16041559 0.10000000)
		(2.95166480 0.14754553 0.10000000)
		(2.97036872 0.13603022 0.10000000)
		(2.98907263 0.12586965 0.10000000)
		(3.00777654 0.11706382 0.10000000)
		(3.02648045 0.10961274 0.10000000)
		(3.04518436 0.10351640 0.10000000)
		(3.06388827 0.09877480 0.10000000)
		(3.08259218 0.09538794 0.10000000)
		(3.10129609 0.09335583 0.10000000)
		(3.12000000 0.09267846 0.10000000)
		(3.14000000 0.09267846 0.10000000)
		(3.16000000 0.09267846 0.10000000)
		(3.18000000 0.09267846 0.10000000)
		(3.20000000 0.09267846 0.10000000)
		(3.22000000 0.09267846 0.10000000)
		(3.24000000 0.09267846 0.10000000)
		(3.26000000 0.09267846 0.10000000)
		(3.28000000 0.09267846 0.10000000)
		(3.30000000 0.09267846 0.10000000)
		(3.32000000 0.09267846 0.10000000)
		(3.34000000 0.09267846 0.10000000)
		(3.36000000 0.09267846 0.10000000)
		(3.38000000 0.09267846 0.10000000)
		(3.40000000 0.09267846 0.10000000)
		(3.42000000 0.09267846 0.10000000)
		(3.44000000 0.09267846 0.10000000)
		(3.46000000 0.09267846 0.10000000)
		(3.48000000 0.09267846 0.10000000)
		(3.50000000 0.09267846 0.10000000)
		(3.52000000 0.09267846 0.10000000)
		(3.54000000 0.09267846 0.10000000)
		(3.56000000 0.09267846 0.10000000)
		(3.58000000 0.09267846 0.10000000)
		(3.60000000 0.09267846 0.10000000)
		(3.62000000 0.09267846 0.10000000)
		(3.64000000 0.09267846 0.10000000)
		(3.66000000 0.09267846 0.10000000)
		(3.68000000 0.09267846 0.10000000)
		(3.70000000 0.09267846 0.10000000)
		(3.72000000 0.09267846 0.10000000)
		(3.74000000 0.09267846 0.10000000)
		(3.76000000 0.09267846 0.10000000)
		(3.78000000 0.09267846 0.10000000)
		(3.80000000 0.09267846 0.10000000)
		(3.82000000 0.09267846 0.10000000)
		(3.84000000 0.09267846 0.10000000)
		(3.86000000 0.09267846 0.10000000)
		(3.88000000 0.09267846 0.10000000)
		(3.90000000 0.09267846 0.10000000)
		(3.92000000 0.09267846 0.10000000)
		(3.94000000 0.09267846 0.10000000)
		(3.96000000 0.09267846 0.10000000)
		(3.98000000 0.09267846 0.10000000)
		(4.00000000 0.09267846 0.10000000)
	)
	polyLine 3 2
	(
		(-1.00000000 0.72793799 0.00000000)
		(-0.98000000 0.72732992 0.00000000)
		(-0.96000000 0.72672185 0.00000000)
		(-0.94000000 0.72611378 0.00000000)
		(-0.92000000 0.72550572 0.00000000)
		(-0.90000000 0.72489765 0.00000000)
		(-0.88000000 0.72428958 0.00000000)
		(-0.86000000 0.72368151 0.00000000)
		(-0.84000000 0.72307344 0.00000000)
		(-0.82000000 0.72246537 0.00000000)
		(-0.80000000 0.72185730 0.00000000)
		(-0.78000000 0.72124923 0.00000000)
		(-0.76000000 0.72064116 0.00000000)
		(-0.74000000 0.72003310 0.00000000)
		(-0.72000000 0.71942503 0.00000000)
		(-0.70000000 0.71881696 0.00000000)
		(-0.68000000 0.71820889 0.00000000)
		(-0.66000000 0.71760082 0.00000000)
		(-0.64000000 0.71699275 0.00000000)
		(-0.62000000 0.71638468 0.00000000)
		(-0.60000000 0.71577661 0.00000000)
		(-0.58000000 0.71516854 0.00000000)
		(-0.56000000 0.71456048 0.00000000)
		(-0.54000000 0.71395241 0.00000000)
		(-0.52000000 0.71334434 0.00000000)
		(-0.50000000 0.71273627 0.00000000)
		(-0.48000000 0.71212820 0.00000000)
		(-0.46000000 0.71152013 0.00000000)
		(-0.44000000 0.71091206 0.00000000)
		(-0.42000000 0.71030399 0.00000000)
		(-0.40000000 0.70969592 0.00000000)
		(-0.38000000 0.70908786 0.00000000)
		(-0.36000000 0.70847979 0.00000000)
		(-0.34000000 0.70787172 0.00000000)
		(-0.32000000 0.70726365 0.00000000)
		(-0.30000000 0.70665558 0.00000000)
		(-0.28000000 0.70604751 0.00000000)
		(-0.26000000 0.70543944 0.00000000)
		(-0.24000000 0.70483137 0.00000000)
		(-0.22000000 0.70422330 0.00000000)
		(-0.20000000 0.70361524 0.00000000)
		(-0.18000000 0.70300717 0.00000000)
		(-0.16000000 0.70239910 0.00000000)
		(-0.14000000 0.70179103 0.00000000)
		(-0.12000000 0.70118296 0.00000000)
		(-0.10000000 0.70057489 0.00000000)
		(-0.08162011 0.70002207 0.00000000)
		(-0.06324022 0.69996245 0.00000000)
		(-0.04486034 0.70039603 0.00000000)
		(-0.02648045 0.70132280 0.00000000)
		(-0.00810056 0.70274277 0.00000000)
		(0.01027933 0.70465594 0.00000000)
		(0.02865922 0.70706231 0.00000000)
		(0.04703911 0.70996188 0.00000000)
		(0.06541899 0.71335464 0.00000000)
		(0.08379888 0.71724060 0.00000000)
		(0.10055866 0.71702629 0.00000000)
		(0.11731844 0.71545062 0.00000000)
		(0.13407821 0.71252348 0.00000000)
		(0.15083799 0.70826323 0.00000000)
		(0.16759777 0.70269659 0.00000000)
		(0.18435754 0.69585848 0.00000000)
		(0.20111732 0.68779180 0.00000000)
		(0.21787709 0.67854714 0.00000000)
		(0.23463687 0.66818250 0.00000000)
		(0.25139665 0.65676288 0.00000000)
		(0.26815642 0.64435993 0.00000000)
		(0.28491620 0.63105144 0.00000000)
		(0.30167598 0.61692090 0.00000000)
		(0.31843575 0.60205693 0.00000000)
		(0.33519553 0.58655279 0.00000000)
		(0.35195531 0.57050572 0.00000000)
		(0.36871508 0.55401639 0.00000000)
		(0.38547486 0.53718822 0.00000000)
		(0.40223464 0.52012678 0.00000000)
		(0.41899441 0.50293909 0.00000000)
		(0.43575419 0.48573296 0.00000000)
		(0.45251397 0.46861633 0.00000000)
		(0.46927374 0.45169656 0.00000000)
		(0.48603352 0.43507978 0.00000000)
		(0.50279330 0.41887024 0.00000000)
		(0.51955307 0.40316960 0.00000000)
		(0.53631285 0.38807636 0.00000000)
		(0.55307263 0.37368519 0.00000000)
		(0.56983240 0.36008637 0.00000000)
		(0.58659218 0.34736519 0.00000000)
		(0.60335196 0.33560145 0.00000000)
		(0.62011173 0.32486895 0.00000000)
		(0.63687151 0.31523500 0.00000000)
		(0.65363128 0.30676005 0.00000000)
		(0.67039106 0.29949724 0.00000000)
		(0.68715084 0.29349214 0.00000000)
		(0.70391061 0.28878242 0.00000000)
		(0.72067039 0.28539762 0.00000000)
		(0.73743017 0.28335897 0.00000000)
		(0.75418994 0.28267926 0.00000000)
		(0.77094972 0.28336275 0.00000000)
		(0.78770950 0.28540516 0.00000000)
		(0.80446927 0.28879367 0.00000000)
		(0.82122905 0.29350703 0.00000000)
		(0.83798883 0.29951568 0.00000000)
		(0.85474860 0.30678191 0.00000000)
		(0.87150838 0.31526016 0.00000000)
		(0.88826816 0.32489724 0.00000000)
		(0.90502793 0.33563270 0.00000000)
		(0.92178771 0.34739920 0.00000000)
		(0.93854749 0.36012293 0.00000000)
		(0.95530726 0.37372408 0.00000000)
		(0.97206704 0.38811732 0.00000000)
		(0.98882682 0.40321238 0.00000000)
		(1.00558659 0.41891457 0.00000000)
		(1.02234637 0.43512539 0.00000000)
		(1.03910615 0.45174315 0.00000000)
		(1.05586592 0.46866361 0.00000000)
		(1.07262570 0.48578064 0.00000000)
		(1.08938547 0.50298687 0.00000000)
		(1.10614525 0.52017436 0.00000000)
		(1.12290503 0.53723530 0.00000000)
		(1.13966480 0.55406267 0.00000000)
		(1.15642458 0.57055092 0.00000000)
		(1.17318436 0.58659662 0.00000000)
		(1.18994413 0.60209912 0.00000000)
		(1.20670391 0.61696117 0.00000000)
		(1.22346369 0.63108955 0.00000000)
		(1.24022346 0.64439564 0.00000000)
		(1.25698324 0.65679597 0.00000000)
		(1.27374302 0.66821275 0.00000000)
		(1.29050279 0.67857437 0.00000000)
		(1.30726257 0.68781584 0.00000000)
		(1.32402235 0.69587918 0.00000000)
		(1.34078212 0.70271382 0.00000000)
		(1.35754190 0.70827687 0.00000000)
		(1.37430168 0.71253346 0.00000000)
		(1.39106145 0.71545687 0.00000000)
		(1.40782123 0.71702877 0.00000000)
		(1.42458101 0.71723930 0.00000000)
		(1.44134078 0.71608713 0.00000000)
		(1.45810056 0.71357950 0.00000000)
		(1.47486034 0.70973214 0.00000000)
		(1.49162011 0.70456917 0.00000000)
		(1.50837989 0.69812298 0.00000000)
		(1.52513966 0.69043402 0.00000000)
		(1.54189944 0.68155051 0.00000000)
		(1.55865922 0.67152817 0.00000000)
		(1.57541899 0.66042988 0.00000000)
		(1.59217877 0.64832524 0.00000000)
		(1.60893855 0.63529020 0.00000000)
		(1.62569832 0.62140651 0.00000000)
		(1.64245810 0.60676127 0.00000000)
		(1.65921788 0.59144633 0.00000000)
		(1.67597765 0.57555778 0.00000000)
		(1.69273743 0.55919527 0.00000000)
		(1.70949721 0.54246144 0.00000000)
		(1.72625698 0.52546126 0.00000000)
		(1.74301676 0.50830136 0.00000000)
		(1.75977654 0.49108940 0.00000000)
		(1.77653631 0.47393333 0.00000000)
		(1.79329609 0.45694076 0.00000000)
		(1.81005587 0.44021830 0.00000000)
		(1.82681564 0.42387084 0.00000000)
		(1.84357542 0.40800092 0.00000000)
		(1.86033520 0.39270808 0.00000000)
		(1.87709497 0.37808827 0.00000000)
		(1.89385475 0.36423317 0.00000000)
		(1.91061453 0.35122972 0.00000000)
		(1.92737430 0.33915946 0.00000000)
		(1.94413408 0.32809812 0.00000000)
		(1.96089385 0.31811508 0.00000000)
		(1.97765363 0.30927297 0.00000000)
		(1.99441341 0.30162724 0.00000000)
		(2.01117318 0.29522585 0.00000000)
		(2.02793296 0.29010897 0.00000000)
		(2.04469274 0.28630869 0.00000000)
		(2.06145251 0.28384885 0.00000000)
		(2.07821229 0.28274487 0.00000000)
		(2.09497207 0.28300368 0.00000000)
		(2.11173184 0.28462366 0.00000000)
		(2.12849162 0.28759465 0.00000000)
		(2.14525140 0.29189801 0.00000000)
		(2.16201117 0.29750674 0.00000000)
		(2.17877095 0.30438567 0.00000000)
		(2.19553073 0.31249164 0.00000000)
		(2.21229050 0.32177381 0.00000000)
		(2.22905028 0.33217395 0.00000000)
		(2.24581006 0.34362683 0.00000000)
		(2.26256983 0.35606060 0.00000000)
		(2.27932961 0.36939726 0.00000000)
		(2.29608939 0.38355317 0.00000000)
		(2.31284916 0.39843952 0.00000000)
		(2.32960894 0.41396294 0.00000000)
		(2.34636872 0.43002605 0.00000000)
		(2.36312849 0.44652809 0.00000000)
		(2.37988827 0.46336555 0.00000000)
		(2.39664804 0.48043281 0.00000000)
		(2.41340782 0.49762280 0.00000000)
		(2.43016760 0.51482771 0.00000000)
		(2.44692737 0.53193961 0.00000000)
		(2.46368715 0.54885116 0.00000000)
		(2.48044693 0.56545627 0.00000000)
		(2.49720670 0.58165080 0.00000000)
		(2.51396648 0.59733314 0.00000000)
		(2.53072626 0.61240494 0.00000000)
		(2.54748603 0.62677165 0.00000000)
		(2.56424581 0.64034315 0.00000000)