/*--------------------------------*- C++ -*----------------------------------*\\
/*--------------------------------*- C++ -*----------------------------------*\\
| =========                 |                                                 |
| \\\\      /  F ield         | OpenFOAM: The Open Source CFD Toolbox           |
|  \\\\    /   O peration     | Version:  v2012                                 |
|   \\\\  /    A nd           | Website:  www.openfoam.com                      |
|    \\\\/     M anipulation  |                                                 |
\\*---------------------------------------------------------------------------*/
FoamFile
{
    version     2.0;
    format      ascii;
    class       dictionary;
    object      blockMeshDict;
}
// * * * * * * * * * * * * * * * * * * * * * * * * * * * * * * * * * * * * * //

scale   0.01;

xmin -1;
xmax 5;
ymin 0;
ymax 0.5;
zmin 0;
zmax 0.1;

vertices
(
    (-1.00000000 0.21880086 0.00000000)
    (4.00000000 0.22673755 0.00000000)
    (4.00000000 0.72673755 0.00000000)
    (-1.00000000 0.71880086 0.00000000)
    (-1.00000000 0.21880086 0.10000000)
    (4.00000000 0.22673755 0.10000000)
    (4.00000000 0.72673755 0.10000000)
    (-1.00000000 0.71880086 0.10000000)
);

blocks
(
    hex (0 1 2 3 4 5 6 7) (200 20 1) simpleGrading (1 1 1)
);

edges
(
	polyLine 0 1
	(
		(-1.00000000 0.21880086 0.00000000)
		(-0.98000000 0.21880086 0.00000000)
		(-0.96000000 0.21880086 0.00000000)
		(-0.94000000 0.21880086 0.00000000)
		(-0.92000000 0.21880086 0.00000000)
		(-0.90000000 0.21880086 0.00000000)
		(-0.88000000 0.21880086 0.00000000)
		(-0.86000000 0.21880086 0.00000000)
		(-0.84000000 0.21880086 0.00000000)
		(-0.82000000 0.21880086 0.00000000)
		(-0.80000000 0.21880086 0.00000000)
		(-0.78000000 0.21880086 0.00000000)
		(-0.76000000 0.21880086 0.00000000)
		(-0.74000000 0.21880086 0.00000000)
		(-0.72000000 0.21880086 0.00000000)
		(-0.70000000 0.21880086 0.00000000)
		(-0.68000000 0.21880086 0.00000000)
		(-0.66000000 0.21880086 0.00000000)
		(-0.64000000 0.21880086 0.00000000)
		(-0.62000000 0.21880086 0.00000000)
		(-0.60000000 0.21880086 0.00000000)
		(-0.58000000 0.21880086 0.00000000)
		(-0.56000000 0.21880086 0.00000000)
		(-0.54000000 0.21880086 0.00000000)
		(-0.52000000 0.21880086 0.00000000)
		(-0.50000000 0.21880086 0.00000000)
		(-0.48000000 0.21880086 0.00000000)
		(-0.46000000 0.21880086 0.00000000)
		(-0.44000000 0.21880086 0.00000000)
		(-0.42000000 0.21880086 0.00000000)
		(-0.40000000 0.21880086 0.00000000)
		(-0.38000000 0.21880086 0.00000000)
		(-0.36000000 0.21880086 0.00000000)
		(-0.34000000 0.21880086 0.00000000)
		(-0.32000000 0.21880086 0.00000000)
		(-0.30000000 0.21880086 0.00000000)
		(-0.28000000 0.21880086 0.00000000)
		(-0.26000000 0.21880086 0.00000000)
		(-0.24000000 0.21880086 0.00000000)
		(-0.22000000 0.21880086 0.00000000)
		(-0.20000000 0.21880086 0.00000000)
		(-0.18000000 0.21880086 0.00000000)
		(-0.16000000 0.21880086 0.00000000)
		(-0.14000000 0.21880086 0.00000000)
		(-0.12000000 0.21880086 0.00000000)
		(-0.10000000 0.21880086 0.00000000)
		(-0.08162011 0.21908404 0.00000000)
		(-0.06324022 0.21993358 0.00000000)
		(-0.04486034 0.22134948 0.00000000)
		(-0.02648045 0.22333174 0.00000000)
		(-0.00810056 0.22588036 0.00000000)
		(0.01027933 0.22899535 0.00000000)
		(0.02865922 0.23267669 0.00000000)
		(0.04703911 0.23692439 0.00000000)
		(0.06541899 0.24173845 0.00000000)
		(0.08379888 0.24711887 0.00000000)
		(0.10055866 0.24917282 0.00000000)
		(0.11731844 0.24998549 0.00000000)
		(0.13407821 0.24955283 0.00000000)
		(0.15083799 0.24787701 0.00000000)
		(0.16759777 0.24496637 0.00000000)
		(0.18435754 0.24083541 0.00000000)
		(0.20111732 0.23550471 0.00000000)
		(0.21787709 0.22900082 0.00000000)
		(0.23463687 0.22135615 0.00000000)
		(0.25139665 0.21260877 0.00000000)
		(0.26815642 0.20280227 0.00000000)
		(0.28491620 0.19198549 0.00000000)
		(0.30167598 0.18021231 0.00000000)
		(0.31843575 0.16754140 0.00000000)
		(0.33519553 0.15403586 0.00000000)
		(0.35195531 0.13976298 0.00000000)
		(0.36871508 0.12479386 0.00000000)
		(0.38547486 0.10920307 0.00000000)
		(0.40223464 0.09306828 0.00000000)
		(0.41899441 0.07646986 0.00000000)
		(0.43575419 0.05949050 0.00000000)
		(0.45251397 0.04221478 0.00000000)
		(0.46927374 0.02472876 0.00000000)
		(0.48603352 0.00711956 0.00000000)
		(0.50279330 -0.01052511 0.00000000)
		(0.51955307 -0.02811735 0.00000000)
		(0.53631285 -0.04556952 0.00000000)
		(0.55307263 -0.06279468 0.00000000)
		(0.56983240 -0.07970702 0.00000000)
		(0.58659218 -0.09622230 0.00000000)
		(0.60335196 -0.11225824 0.00000000)
		(0.62011173 -0.12773495 0.00000000)
		(0.63687151 -0.14257535 0.00000000)
		(0.65363128 -0.15670549 0.00000000)
		(0.67039106 -0.17005499 0.00000000)
		(0.68715084 -0.18255735 0.00000000)
		(0.70391061 -0.19415028 0.00000000)
		(0.72067039 -0.20477604 0.00000000)
		(0.73743017 -0.21438169 0.00000000)
		(0.75418994 -0.22291938 0.00000000)
		(0.77094972 -0.23034658 0.00000000)
		(0.78770950 -0.23662628 0.00000000)
		(0.80446927 -0.24172722 0.00000000)
		(0.82122905 -0.24562397 0.00000000)
		(0.83798883 -0.24829713 0.00000000)
		(0.85474860 -0.24973337 0.00000000)
		(0.87150838 -0.24992555 0.00000000)
		(0.88826816 -0.24887270 0.00000000)
		(0.90502793 -0.24658007 0.00000000)
		(0.92178771 -0.24305908 0.00000000)
		(0.93854749 -0.23832728 0.00000000)
		(0.95530726 -0.23240823 0.00000000)
		(0.97206704 -0.22533141 0.00000000)
		(0.98882682 -0.21713210 0.00000000)
		(1.00558659 -0.20785112 0.00000000)
		(1.02234637 -0.19753471 0.00000000)
		(1.03910615 -0.18623426 0.00000000)
		(1.05586592 -0.17400608 0.00000000)
		(1.07262570 -0.16091107 0.00000000)
		(1.08938547 -0.14701447 0.00000000)
		(1.10614525 -0.13238550 0.00000000)
		(1.12290503 -0.11709705 0.00000000)
		(1.13966480 -0.10122527 0.00000000)
		(1.15642458 -0.08484922 0.00000000)
		(1.17318436 -0.06805049 0.00000000)
		(1.18994413 -0.05091276 0.00000000)
		(1.20670391 -0.03352141 0.00000000)
		(1.22346369 -0.01596307 0.00000000)
		(1.24022346 0.00167480 0.00000000)
		(1.25698324 0.01930432 0.00000000)
		(1.27374302 0.03683767 0.00000000)
		(1.29050279 0.05418752 0.00000000)
		(1.30726257 0.07126743 0.00000000)
		(1.32402235 0.08799231 0.00000000)
		(1.34078212 0.10427885 0.00000000)
		(1.35754190 0.12004592 0.00000000)
		(1.37430168 0.13521496 0.00000000)
		(1.39106145 0.14971043 0.00000000)
		(1.40782123 0.16346010 0.00000000)
		(1.42458101 0.17639548 0.00000000)
		(1.44134078 0.18845213 0.00000000)
		(1.45810056 0.19956999 0.00000000)
		(1.47486034 0.20969368 0.00000000)
		(1.49162011 0.21877276 0.00000000)
		(1.50837989 0.22676201 0.00000000)
		(1.52513966 0.23362162 0.00000000)
		(1.54189944 0.23931743 0.00000000)
		(1.55865922 0.24382106 0.00000000)
		(1.57541899 0.24711007 0.00000000)
		(1.59217877 0.24916809 0.00000000)
		(1.60893855 0.24998485 0.00000000)
		(1.62569832 0.24955630 0.00000000)
		(1.64245810 0.24788456 0.00000000)
		(1.65921788 0.24497796 0.00000000)
		(1.67597765 0.24085099 0.00000000)
		(1.69273743 0.23552419 0.00000000)
		(1.70949721 0.22902412 0.00000000)
		(1.72625698 0.22138314 0.00000000)
		(1.74301676 0.21263932 0.00000000)
		(1.75977654 0.20283622 0.00000000)
		(1.77653631 0.19202268 0.00000000)
		(1.79329609 0.18025256 0.00000000)
		(1.81005587 0.16758450 0.00000000)
		(1.82681564 0.15408160 0.00000000)
		(1.84357542 0.13981113 0.00000000)
		(1.86033520 0.12484419 0.00000000)
		(1.87709497 0.10925532 0.00000000)
		(1.89385475 0.09312218 0.00000000)
		(1.91061453 0.07652515 0.00000000)
		(1.92737430 0.05954691 0.00000000)
		(1.94413408 0.04227202 0.00000000)
		(1.96089385 0.02478656 0.00000000)
		(1.97765363 0.00717761 0.00000000)
		(1.99441341 -0.01046708 0.00000000)
		(2.01117318 -0.02805964 0.00000000)
		(2.02793296 -0.04551241 0.00000000)
		(2.04469274 -0.06273846 0.00000000)
		(2.06145251 -0.07965197 0.00000000)
		(2.07821229 -0.09616869 0.00000000)
		(2.09497207 -0.11220634 0.00000000)
		(2.11173184 -0.12768502 0.00000000)
		(2.12849162 -0.14252763 0.00000000)
		(2.14525140 -0.15666023 0.00000000)
		(2.16201117 -0.17001241 0.00000000)
		(2.17877095 -0.18251766 0.00000000)
		(2.19553073 -0.19411369 0.00000000)
		(2.21229050 -0.20474272 0.00000000)
		(2.22905028 -0.21435180 0.00000000)
		(2.24581006 -0.22289308 0.00000000)
		(2.26256983 -0.23032400 0.00000000)
		(2.27932961 -0.23660754 0.00000000)
		(2.29608939 -0.24171240 0.00000000)
		(2.31284916 -0.24561315 0.00000000)
		(2.32960894 -0.24829035 0.00000000)
		(2.34636872 -0.24973068 0.00000000)
		(2.36312849 -0.24992696 0.00000000)
		(2.37988827 -0.24887820 0.00000000)
		(2.39664804 -0.24658964 0.00000000)
		(2.41340782 -0.24307267 0.00000000)
		(2.43016760 -0.23834481 0.00000000)
		(2.44692737 -0.23242962 0.00000000)
		(2.46368715 -0.22535656 0.00000000)
		(2.48044693 -0.21716088 0.00000000)
		(2.49720670 -0.20788338 0.00000000)
		(2.51396648 -0.19757030 0.00000000)
		(2.53072626 -0.18627301 0.00000000)
		(2.54748603 -0.17404778 0.00000000)
		(2.56424581 -0.16095552 0.00000000)
		(2.58100559 -0.14706144 0.00000000)
		(2.59776536 -0.13243477 0.00000000)
		(2.61452514 -0.11714836 0.00000000)
		(2.63128492 -0.10127837 0.00000000)
		(2.64804469 -0.08490385 0.00000000)
		(2.66480447 -0.06810638 0.00000000)
		(2.68156425 -0.05096962 0.00000000)
		(2.69832402 -0.03357896 0.00000000)
		(2.71508380 -0.01602103 0.00000000)
		(2.73184358 0.00161672 0.00000000)
		(2.74860335 0.01924641 0.00000000)
		(2.76536313 0.03678023 0.00000000)
		(2.78212291 0.05413082 0.00000000)
		(2.79888268 0.07121176 0.00000000)
		(2.81564246 0.08793794 0.00000000)
		(2.83240223 0.10422606 0.00000000)
		(2.84916201 0.11999497 0.00000000)
		(2.86592179 0.13516611 0.00000000)
		(2.88268156 0.14966391 0.00000000)
		(2.89944134 0.16341615 0.00000000)
		(2.91620112 0.17635432 0.00000000)
		(2.93296089 0.18841396 0.00000000)
		(2.95166480 0.19569544 0.00000000)
		(2.97036872 0.20221045 0.00000000)
		(2.98907263 0.20795899 0.00000000)
		(3.00777654 0.21294106 0.00000000)
		(3.02648045 0.21715665 0.00000000)
		(3.04518436 0.22060577 0.00000000)
		(3.06388827 0.22328843 0.00000000)
		(3.08259218 0.22520461 0.00000000)
		(3.10129609 0.22635431 0.00000000)
		(3.12000000 0.22673755 0.00000000)
		(3.14000000 0.22673755 0.00000000)
		(3.16000000 0.22673755 0.00000000)
		(3.18000000 0.22673755 0.00000000)
		(3.20000000 0.22673755 0.00000000)
		(3.22000000 0.22673755 0.00000000)
		(3.24000000 0.22673755 0.00000000)
		(3.26000000 0.22673755 0.00000000)
		(3.28000000 0.22673755 0.00000000)
		(3.30000000 0.22673755 0.00000000)
		(3.32000000 0.22673755 0.00000000)
		(3.34000000 0.22673755 0.00000000)
		(3.36000000 0.22673755 0.00000000)
		(3.38000000 0.22673755 0.00000000)
		(3.40000000 0.22673755 0.00000000)
		(3.42000000 0.22673755 0.00000000)
		(3.44000000 0.22673755 0.00000000)
		(3.46000000 0.22673755 0.00000000)
		(3.48000000 0.22673755 0.00000000)
		(3.50000000 0.22673755 0.00000000)
		(3.52000000 0.22673755 0.00000000)
		(3.54000000 0.22673755 0.00000000)
		(3.56000000 0.22673755 0.00000000)
		(3.58000000 0.22673755 0.00000000)
		(3.60000000 0.22673755 0.00000000)
		(3.62000000 0.22673755 0.00000000)
		(3.64000000 0.22673755 0.00000000)
		(3.66000000 0.22673755 0.00000000)
		(3.68000000 0.22673755 0.00000000)
		(3.70000000 0.22673755 0.00000000)
		(3.72000000 0.22673755 0.00000000)
		(3.74000000 0.22673755 0.00000000)
		(3.76000000 0.22673755 0.00000000)
		(3.78000000 0.22673755 0.00000000)
		(3.80000000 0.22673755 0.00000000)
		(3.82000000 0.22673755 0.00000000)
		(3.84000000 0.22673755 0.00000000)
		(3.86000000 0.22673755 0.00000000)
		(3.88000000 0.22673755 0.00000000)
		(3.90000000 0.22673755 0.00000000)
		(3.92000000 0.22673755 0.00000000)
		(3.94000000 0.22673755 0.00000000)
		(3.96000000 0.22673755 0.00000000)
		(3.98000000 0.22673755 0.00000000)
		(4.00000000 0.22673755 0.00000000)
	)
	polyLine 4 5
	(
		(-1.00000000 0.21880086 0.10000000)
		(-0.98000000 0.21880086 0.10000000)
		(-0.96000000 0.21880086 0.10000000)
		(-0.94000000 0.21880086 0.10000000)
		(-0.92000000 0.21880086 0.10000000)
		(-0.90000000 0.21880086 0.10000000)
		(-0.88000000 0.21880086 0.10000000)
		(-0.86000000 0.21880086 0.10000000)
		(-0.84000000 0.21880086 0.10000000)
		(-0.82000000 0.21880086 0.10000000)
		(-0.80000000 0.21880086 0.10000000)
		(-0.78000000 0.21880086 0.10000000)
		(-0.76000000 0.21880086 0.10000000)
		(-0.74000000 0.21880086 0.10000000)
		(-0.72000000 0.21880086 0.10000000)
		(-0.70000000 0.21880086 0.10000000)
		(-0.68000000 0.21880086 0.10000000)
		(-0.66000000 0.21880086 0.10000000)
		(-0.64000000 0.21880086 0.10000000)
		(-0.62000000 0.21880086 0.10000000)
		(-0.60000000 0.21880086 0.10000000)
		(-0.58000000 0.21880086 0.10000000)
		(-0.56000000 0.21880086 0.10000000)
		(-0.54000000 0.21880086 0.10000000)
		(-0.52000000 0.21880086 0.10000000)
		(-0.50000000 0.21880086 0.10000000)
		(-0.48000000 0.21880086 0.10000000)
		(-0.46000000 0.21880086 0.10000000)
		(-0.44000000 0.21880086 0.10000000)
		(-0.42000000 0.21880086 0.10000000)
		(-0.40000000 0.21880086 0.10000000)
		(-0.38000000 0.21880086 0.10000000)
		(-0.36000000 0.21880086 0.10000000)
		(-0.34000000 0.21880086 0.10000000)
		(-0.32000000 0.21880086 0.10000000)
		(-0.30000000 0.21880086 0.10000000)
		(-0.28000000 0.21880086 0.10000000)
		(-0.26000000 0.21880086 0.10000000)
		(-0.24000000 0.21880086 0.10000000)
		(-0.22000000 0.21880086 0.10000000)
		(-0.20000000 0.21880086 0.10000000)
		(-0.18000000 0.21880086 0.10000000)
		(-0.16000000 0.21880086 0.10000000)
		(-0.14000000 0.21880086 0.10000000)
		(-0.12000000 0.21880086 0.10000000)
		(-0.10000000 0.21880086 0.10000000)
		(-0.08162011 0.21908404 0.10000000)
		(-0.06324022 0.21993358 0.10000000)
		(-0.04486034 0.22134948 0.10000000)
		(-0.02648045 0.22333174 0.10000000)
		(-0.00810056 0.22588036 0.10000000)
		(0.01027933 0.22899535 0.10000000)
		(0.02865922 0.23267669 0.10000000)
		(0.04703911 0.23692439 0.10000000)
		(0.06541899 0.24173845 0.10000000)
		(0.08379888 0.24711887 0.10000000)
		(0.10055866 0.24917282 0.10000000)
		(0.11731844 0.24998549 0.10000000)
		(0.13407821 0.24955283 0.10000000)
		(0.15083799 0.24787701 0.10000000)
		(0.16759777 0.24496637 0.10000000)
		(0.18435754 0.24083541 0.10000000)
		(0.20111732 0.23550471 0.10000000)
		(0.21787709 0.22900082 0.10000000)
		(0.23463687 0.22135615 0.10000000)
		(0.25139665 0.21260877 0.10000000)
		(0.26815642 0.20280227 0.10000000)
		(0.28491620 0.19198549 0.10000000)
		(0.30167598 0.18021231 0.10000000)
		(0.31843575 0.16754140 0.10000000)
		(0.33519553 0.15403586 0.10000000)
		(0.35195531 0.13976298 0.10000000)
		(0.36871508 0.12479386 0.10000000)
		(0.38547486 0.10920307 0.10000000)
		(0.40223464 0.09306828 0.10000000)
		(0.41899441 0.07646986 0.10000000)
		(0.43575419 0.05949050 0.10000000)
		(0.45251397 0.04221478 0.10000000)
		(0.46927374 0.02472876 0.10000000)
		(0.48603352 0.00711956 0.10000000)
		(0.50279330 -0.01052511 0.10000000)
		(0.51955307 -0.02811735 0.10000000)
		(0.53631285 -0.04556952 0.10000000)
		(0.55307263 -0.06279468 0.10000000)
		(0.56983240 -0.07970702 0.10000000)
		(0.58659218 -0.09622230 0.10000000)
		(0.60335196 -0.11225824 0.10000000)
		(0.62011173 -0.12773495 0.10000000)
		(0.63687151 -0.14257535 0.10000000)
		(0.65363128 -0.15670549 0.10000000)
		(0.67039106 -0.17005499 0.10000000)
		(0.68715084 -0.18255735 0.10000000)
		(0.70391061 -0.19415028 0.10000000)
		(0.72067039 -0.20477604 0.10000000)
		(0.73743017 -0.21438169 0.10000000)
		(0.75418994 -0.22291938 0.10000000)
		(0.77094972 -0.23034658 0.10000000)
		(0.78770950 -0.23662628 0.10000000)
		(0.80446927 -0.24172722 0.10000000)
		(0.82122905 -0.24562397 0.10000000)
		(0.83798883 -0.24829713 0.10000000)
		(0.85474860 -0.24973337 0.10000000)
		(0.87150838 -0.24992555 0.10000000)
		(0.88826816 -0.24887270 0.10000000)
		(0.90502793 -0.24658007 0.10000000)
		(0.92178771 -0.24305908 0.10000000)
		(0.93854749 -0.23832728 0.10000000)
		(0.95530726 -0.23240823 0.10000000)
		(0.97206704 -0.22533141 0.10000000)
		(0.98882682 -0.21713210 0.10000000)
		(1.00558659 -0.20785112 0.10000000)
		(1.02234637 -0.19753471 0.10000000)
		(1.03910615 -0.18623426 0.10000000)
		(1.05586592 -0.17400608 0.10000000)
		(1.07262570 -0.16091107 0.10000000)
		(1.08938547 -0.14701447 0.10000000)
		(1.10614525 -0.13238550 0.10000000)
		(1.12290503 -0.11709705 0.10000000)
		(1.13966480 -0.10122527 0.10000000)
		(1.15642458 -0.08484922 0.10000000)
		(1.17318436 -0.06805049 0.10000000)
		(1.18994413 -0.05091276 0.10000000)
		(1.20670391 -0.03352141 0.10000000)
		(1.22346369 -0.01596307 0.10000000)
		(1.24022346 0.00167480 0.10000000)
		(1.25698324 0.01930432 0.10000000)
		(1.27374302 0.03683767 0.10000000)
		(1.29050279 0.05418752 0.10000000)
		(1.30726257 0.07126743 0.10000000)
		(1.32402235 0.08799231 0.10000000)
		(1.34078212 0.10427885 0.10000000)
		(1.35754190 0.12004592 0.10000000)
		(1.37430168 0.13521496 0.10000000)
		(1.39106145 0.14971043 0.10000000)
		(1.40782123 0.16346010 0.10000000)
		(1.42458101 0.17639548 0.10000000)
		(1.44134078 0.18845213 0.10000000)
		(1.45810056 0.19956999 0.10000000)
		(1.47486034 0.20969368 0.10000000)
		(1.49162011 0.21877276 0.10000000)
		(1.50837989 0.22676201 0.10000000)
		(1.52513966 0.23362162 0.10000000)
		(1.54189944 0.23931743 0.10000000)
		(1.55865922 0.24382106 0.10000000)
		(1.57541899 0.24711007 0.10000000)
		(1.59217877 0.24916809 0.10000000)
		(1.60893855 0.24998485 0.10000000)
		(1.62569832 0.24955630 0.10000000)
		(1.64245810 0.24788456 0.10000000)
		(1.65921788 0.24497796 0.10000000)
		(1.67597765 0.24085099 0.10000000)
		(1.69273743 0.23552419 0.10000000)
		(1.70949721 0.22902412 0.10000000)
		(1.72625698 0.22138314 0.10000000)
		(1.74301676 0.21263932 0.10000000)
		(1.75977654 0.20283622 0.10000000)
		(1.77653631 0.19202268 0.10000000)
		(1.79329609 0.18025256 0.10000000)
		(1.81005587 0.16758450 0.10000000)
		(1.82681564 0.15408160 0.10000000)
		(1.84357542 0.13981113 0.10000000)
		(1.86033520 0.12484419 0.10000000)
		(1.87709497 0.10925532 0.10000000)
		(1.89385475 0.09312218 0.10000000)
		(1.91061453 0.07652515 0.10000000)
		(1.92737430 0.05954691 0.10000000)
		(1.94413408 0.04227202 0.10000000)
		(1.96089385 0.02478656 0.10000000)
		(1.97765363 0.00717761 0.10000000)
		(1.99441341 -0.01046708 0.10000000)
		(2.01117318 -0.02805964 0.10000000)
		(2.02793296 -0.04551241 0.10000000)
		(2.04469274 -0.06273846 0.10000000)
		(2.06145251 -0.07965197 0.10000000)
		(2.07821229 -0.09616869 0.10000000)
		(2.09497207 -0.11220634 0.10000000)
		(2.11173184 -0.12768502 0.10000000)
		(2.12849162 -0.14252763 0.10000000)
		(2.14525140 -0.15666023 0.10000000)
		(2.16201117 -0.17001241 0.10000000)
		(2.17877095 -0.18251766 0.10000000)
		(2.19553073 -0.19411369 0.10000000)
		(2.21229050 -0.20474272 0.10000000)
		(2.22905028 -0.21435180 0.10000000)
		(2.24581006 -0.22289308 0.10000000)
		(2.26256983 -0.23032400 0.10000000)
		(2.27932961 -0.23660754 0.10000000)
		(2.29608939 -0.24171240 0.10000000)
		(2.31284916 -0.24561315 0.10000000)
		(2.32960894 -0.24829035 0.10000000)
		(2.34636872 -0.24973068 0.10000000)
		(2.36312849 -0.24992696 0.10000000)
		(2.37988827 -0.24887820 0.10000000)
		(2.39664804 -0.24658964 0.10000000)
		(2.41340782 -0.24307267 0.10000000)
		(2.43016760 -0.23834481 0.10000000)
		(2.44692737 -0.23242962 0.10000000)
		(2.46368715 -0.22535656 0.10000000)
		(2.48044693 -0.21716088 0.10000000)
		(2.49720670 -0.20788338 0.10000000)
		(2.51396648 -0.19757030 0.10000000)
		(2.53072626 -0.18627301 0.10000000)
		(2.54748603 -0.17404778 0.10000000)
		(2.56424581 -0.16095552 0.10000000)
		(2.58100559 -0.14706144 0.10000000)
		(2.59776536 -0.13243477 0.10000000)
		(2.61452514 -0.11714836 0.10000000)
		(2.63128492 -0.10127837 0.10000000)
		(2.64804469 -0.08490385 0.10000000)
		(2.66480447 -0.06810638 0.10000000)
		(2.68156425 -0.05096962 0.10000000)
		(2.69832402 -0.03357896 0.10000000)
		(2.71508380 -0.01602103 0.10000000)
		(2.73184358 0.00161672 0.10000000)
		(2.74860335 0.01924641 0.10000000)
		(2.76536313 0.03678023 0.10000000)
		(2.78212291 0.05413082 0.10000000)
		(2.79888268 0.07121176 0.10000000)
		(2.81564246 0.08793794 0.10000000)
		(2.83240223 0.10422606 0.10000000)
		(2.84916201 0.11999497 0.10000000)
		(2.86592179 0.13516611 0.10000000)
		(2.88268156 0.14966391 0.10000000)
		(2.89944134 0.16341615 0.10000000)
		(2.91620112 0.17635432 0.10000000)
		(2.93296089 0.18841396 0.10000000)
		(2.95166480 0.19569544 0.10000000)
		(2.97036872 0.20221045 0.10000000)
		(2.98907263 0.20795899 0.10000000)
		(3.00777654 0.21294106 0.10000000)
		(3.02648045 0.21715665 0.10000000)
		(3.04518436 0.22060577 0.10000000)
		(3.06388827 0.22328843 0.10000000)
		(3.08259218 0.22520461 0.10000000)
		(3.10129609 0.22635431 0.10000000)
		(3.12000000 0.22673755 0.10000000)
		(3.14000000 0.22673755 0.10000000)
		(3.16000000 0.22673755 0.10000000)
		(3.18000000 0.22673755 0.10000000)
		(3.20000000 0.22673755 0.10000000)
		(3.22000000 0.22673755 0.10000000)
		(3.24000000 0.22673755 0.10000000)
		(3.26000000 0.22673755 0.10000000)
		(3.28000000 0.22673755 0.10000000)
		(3.30000000 0.22673755 0.10000000)
		(3.32000000 0.22673755 0.10000000)
		(3.34000000 0.22673755 0.10000000)
		(3.36000000 0.22673755 0.10000000)
		(3.38000000 0.22673755 0.10000000)
		(3.40000000 0.22673755 0.10000000)
		(3.42000000 0.22673755 0.10000000)
		(3.44000000 0.22673755 0.10000000)
		(3.46000000 0.22673755 0.10000000)
		(3.48000000 0.22673755 0.10000000)
		(3.50000000 0.22673755 0.10000000)
		(3.52000000 0.22673755 0.10000000)
		(3.54000000 0.22673755 0.10000000)
		(3.56000000 0.22673755 0.10000000)
		(3.58000000 0.22673755 0.10000000)
		(3.60000000 0.22673755 0.10000000)
		(3.62000000 0.22673755 0.10000000)
		(3.64000000 0.22673755 0.10000000)
		(3.66000000 0.22673755 0.10000000)
		(3.68000000 0.22673755 0.10000000)
		(3.70000000 0.22673755 0.10000000)
		(3.72000000 0.22673755 0.10000000)
		(3.74000000 0.22673755 0.10000000)
		(3.76000000 0.22673755 0.10000000)
		(3.78000000 0.22673755 0.10000000)
		(3.80000000 0.22673755 0.10000000)
		(3.82000000 0.22673755 0.10000000)
		(3.84000000 0.22673755 0.10000000)
		(3.86000000 0.22673755 0.10000000)
		(3.88000000 0.22673755 0.10000000)
		(3.90000000 0.22673755 0.10000000)
		(3.92000000 0.22673755 0.10000000)
		(3.94000000 0.22673755 0.10000000)
		(3.96000000 0.22673755 0.10000000)
		(3.98000000 0.22673755 0.10000000)
		(4.00000000 0.22673755 0.10000000)
	)
	polyLine 3 2
	(
		(-1.00000000 0.71880086 0.00000000)
		(-0.98000000 0.72068940 0.00000000)
		(-0.96000000 0.72257795 0.00000000)
		(-0.94000000 0.72446649 0.00000000)
		(-0.92000000 0.72635503 0.00000000)
		(-0.90000000 0.72824357 0.00000000)
		(-0.88000000 0.73013211 0.00000000)
		(-0.86000000 0.73202066 0.00000000)
		(-0.84000000 0.73390920 0.00000000)
		(-0.82000000 0.73579774 0.00000000)
		(-0.80000000 0.73768628 0.00000000)
		(-0.78000000 0.73957482 0.00000000)
		(-0.76000000 0.74146336 0.00000000)
		(-0.74000000 0.74335191 0.00000000)
		(-0.72000000 0.74524045 0.00000000)
		(-0.70000000 0.74712899 0.00000000)
		(-0.68000000 0.74901753 0.00000000)
		(-0.66000000 0.75090607 0.00000000)
		(-0.64000000 0.75279462 0.00000000)
		(-0.62000000 0.75468316 0.00000000)
		(-0.60000000 0.75657170 0.00000000)
		(-0.58000000 0.75846024 0.00000000)
		(-0.56000000 0.76034878 0.00000000)
		(-0.54000000 0.76223733 0.00000000)
		(-0.52000000 0.76412587 0.00000000)
		(-0.50000000 0.76601441 0.00000000)
		(-0.48000000 0.76790295 0.00000000)
		(-0.46000000 0.76979149 0.00000000)
		(-0.44000000 0.77168004 0.00000000)
		(-0.42000000 0.77356858 0.00000000)
		(-0.40000000 0.77545712 0.00000000)
		(-0.38000000 0.77734566 0.00000000)
		(-0.36000000 0.77923420 0.00000000)
		(-0.34000000 0.78112275 0.00000000)
		(-0.32000000 0.78301129 0.00000000)
		(-0.30000000 0.78489983 0.00000000)
		(-0.28000000 0.78678837 0.00000000)
		(-0.26000000 0.78867691 0.00000000)
		(-0.24000000 0.79056546 0.00000000)
		(-0.22000000 0.79245400 0.00000000)
		(-0.20000000 0.79434254 0.00000000)
		(-0.18000000 0.79623108 0.00000000)
		(-0.16000000 0.79811962 0.00000000)
		(-0.14000000 0.80000816 0.00000000)
		(-0.12000000 0.80189671 0.00000000)
		(-0.10000000 0.80378525 0.00000000)
		(-0.08162011 0.80483529 0.00000000)
		(-0.06324022 0.80671529 0.00000000)
		(-0.04486034 0.80942526 0.00000000)
		(-0.02648045 0.81296520 0.00000000)
		(-0.00810056 0.81733510 0.00000000)
		(0.01027933 0.82253497 0.00000000)
		(0.02865922 0.82856480 0.00000000)
		(0.04703911 0.83542461 0.00000000)
		(0.06541899 0.84311437 0.00000000)
		(0.08379888 0.85163411 0.00000000)
		(0.10055866 0.85455674 0.00000000)
		(0.11731844 0.85571311 0.00000000)
		(0.13407821 0.85509748 0.00000000)
		(0.15083799 0.85271289 0.00000000)
		(0.16759777 0.84857124 0.00000000)
		(0.18435754 0.84269315 0.00000000)
		(0.20111732 0.83510791 0.00000000)
		(0.21787709 0.82585330 0.00000000)
		(0.23463687 0.81497543 0.00000000)
		(0.25139665 0.80252848 0.00000000)
		(0.26815642 0.78857446 0.00000000)
		(0.28491620 0.77318288 0.00000000)
		(0.30167598 0.75643042 0.00000000)
		(0.31843575 0.73840053 0.00000000)
		(0.33519553 0.71918303 0.00000000)
		(0.35195531 0.69887365 0.00000000)
		(0.36871508 0.67757356 0.00000000)
		(0.38547486 0.65538888 0.00000000)
		(0.40223464 0.63243012 0.00000000)
		(0.41899441 0.60881164 0.00000000)
		(0.43575419 0.58465112 0.00000000)
		(0.45251397 0.56006889 0.00000000)
		(0.46927374 0.53518743 0.00000000)
		(0.48603352 0.51013067 0.00000000)
		(0.50279330 0.48502345 0.00000000)
		(0.51955307 0.45999084 0.00000000)
		(0.53631285 0.43515754 0.00000000)
		(0.55307263 0.41064725 0.00000000)
		(0.56983240 0.38658208 0.00000000)
		(0.58659218 0.36308192 0.00000000)
		(0.60335196 0.34026382 0.00000000)
		(0.62011173 0.31824146 0.00000000)
		(0.63687151 0.29712454 0.00000000)
		(0.65363128 0.27701827 0.00000000)
		(0.67039106 0.25802280 0.00000000)
		(0.68715084 0.24023275 0.00000000)
		(0.70391061 0.22373676 0.00000000)
		(0.72067039 0.20861700 0.00000000)
		(0.73743017 0.19494878 0.00000000)
		(0.75418994 0.18280020 0.00000000)
		(0.77094972 0.17223178 0.00000000)
		(0.78770950 0.16329616 0.00000000)
		(0.80446927 0.15603786 0.00000000)
		(0.82122905 0.15049304 0.00000000)
		(0.83798883 0.14668931 0.00000000)
		(0.85474860 0.14464563 0.00000000)
		(0.87150838 0.14437218 0.00000000)
		(0.88826816 0.14587031 0.00000000)
		(0.90502793 0.14913257 0.00000000)
		(0.92178771 0.15414271 0.00000000)
		(0.93854749 0.16087576 0.00000000)
		(0.95530726 0.16929819 0.00000000)
		(0.97206704 0.17936803 0.00000000)
		(0.98882682 0.19103513 0.00000000)
		(1.00558659 0.20424136 0.00000000)
		(1.02234637 0.21892094 0.00000000)
		(1.03910615 0.23500074 0.00000000)
		(1.05586592 0.25240065 0.00000000)
		(1.07262570 0.27103400 0.00000000)
		(1.08938547 0.29080796 0.00000000)
		(1.10614525 0.31162402 0.00000000)
		(1.12290503 0.33337850 0.00000000)
		(1.13966480 0.35596302 0.00000000)
		(1.15642458 0.37926507 0.00000000)
		(1.17318436 0.40316857 0.00000000)
		(1.18994413 0.42755444 0.00000000)
		(1.20670391 0.45230121 0.00000000)
		(1.22346369 0.47728559 0.00000000)
		(1.24022346 0.50238313 0.00000000)
		(1.25698324 0.52746879 0.00000000)
		(1.27374302 0.55241762 0.00000000)
		(1.29050279 0.57710532 0.00000000)
		(1.30726257 0.60140892 0.00000000)
		(1.32402235 0.62520734 0.00000000)
		(1.34078212 0.64838203 0.00000000)
		(1.35754190 0.67081754 0.00000000)
		(1.37430168 0.69240211 0.00000000)
		(1.39106145 0.71302822 0.00000000)
		(1.40782123 0.73259310 0.00000000)
		(1.42458101 0.75099931 0.00000000)
		(1.44134078 0.76815514 0.00000000)
		(1.45810056 0.78397514 0.00000000)
		(1.47486034 0.79838049 0.00000000)
		(1.49162011 0.81129943 0.00000000)
		(1.50837989 0.82266761 0.00000000)
		(1.52513966 0.83242839 0.00000000)
		(1.54189944 0.84053316 0.00000000)
		(1.55865922 0.84694153 0.00000000)
		(1.57541899 0.85162159 0.00000000)
		(1.59217877 0.85455001 0.00000000)
		(1.60893855 0.85571221 0.00000000)
		(1.62569832 0.85510241 0.00000000)
		(1.64245810 0.85272363 0.00000000)
		(1.65921788 0.84858773 0.00000000)
		(1.67597765 0.84271531 0.00000000)
		(1.69273743 0.83513563 0.00000000)
		(1.70949721 0.82588644 0.00000000)
		(1.72625698 0.81501383 0.00000000)
		(1.74301676 0.80257194 0.00000000)
		(1.75977654 0.78862277 0.00000000)
		(1.77653631 0.77323580 0.00000000)
		(1.79329609 0.75648769 0.00000000)
		(1.81005587 0.73846186 0.00000000)
		(1.82681564 0.71924811 0.00000000)
		(1.84357542 0.69894216 0.00000000)
		(1.86033520 0.67764517 0.00000000)
		(1.87709497 0.65546322 0.00000000)
		(1.89385475 0.63250682 0.00000000)
		(1.91061453 0.60889032 0.00000000)
		(1.92737430 0.58473138 0.00000000)
		(1.94413408 0.56015034 0.00000000)
		(1.96089385 0.53526966 0.00000000)
		(1.97765363 0.51021328 0.00000000)
		(1.99441341 0.48510602 0.00000000)
		(2.01117318 0.46007296 0.00000000)
		(2.02793296 0.43523880 0.00000000)
		(2.04469274 0.41072724 0.00000000)
		(2.06145251 0.38666041 0.00000000)
		(2.07821229 0.36315819 0.00000000)
		(2.09497207 0.34033766 0.00000000)
		(2.11173184 0.31831250 0.00000000)
		(2.12849162 0.29719243 0.00000000)
		(2.14525140 0.27708267 0.00000000)
		(2.16201117 0.25808338 0.00000000)
		(2.17877095 0.24028922 0.00000000)
		(2.19553073 0.22378883 0.00000000)
		(2.21229050 0.20866441 0.00000000)
		(2.22905028 0.19499130 0.00000000)
		(2.24581006 0.18283762 0.00000000)
		(2.26256983 0.17226391 0.00000000)
		(2.27932961 0.16332284 0.00000000)
		(2.29608939 0.15605896 0.00000000)
		(2.31284916 0.15050844 0.00000000)
		(2.32960894 0.14669895 0.00000000)
		(2.34636872 0.14464946 0.00000000)
		(2.36312849 0.14437017 0.00000000)
		(2.37988827 0.14586248 0.00000000)
		(2.39664804 0.14911896 0.00000000)
		(2.41340782 0.15412338 0.00000000)
		(2.43016760 0.16085081 0.00000000)
		(2.44692737 0.16926774 0.00000000)
		(2.46368715 0.17933224 0.00000000)
		(2.48044693 0.19099418 0.00000000)
		(2.49720670 0.20419545 0.00000000)
		(2.51396648 0.21887029 0.00000000)
		(2.53072626 0.23494561 0.00000000)
		(2.54748603 0.25234132 0.00000000)
		(2.56424581 0.27097075 0.00000000)