/*--------------------------------*- C++ -*----------------------------------*\\
/*--------------------------------*- C++ -*----------------------------------*\\
| =========                 |                                                 |
| \\\\      /  F ield         | OpenFOAM: The Open Source CFD Toolbox           |
|  \\\\    /   O peration     | Version:  v2012                                 |
|   \\\\  /    A nd           | Website:  www.openfoam.com                      |
|    \\\\/     M anipulation  |                                                 |
\\*---------------------------------------------------------------------------*/
FoamFile
{
    version     2.0;
    format      ascii;
    class       dictionary;
    object      blockMeshDict;
}
// * * * * * * * * * * * * * * * * * * * * * * * * * * * * * * * * * * * * * //

scale   0.01;

xmin -1;
xmax 5;
ymin 0;
ymax 0.5;
zmin 0;
zmax 0.1;

vertices
(
    (-1.00000000 -0.23481751 0.00000000)
    (4.00000000 -0.12927770 0.00000000)
    (4.00000000 0.37072230 0.00000000)
    (-1.00000000 0.26518249 0.00000000)
    (-1.00000000 -0.23481751 0.10000000)
    (4.00000000 -0.12927770 0.10000000)
    (4.00000000 0.37072230 0.10000000)
    (-1.00000000 0.26518249 0.10000000)
);

blocks
(
    hex (0 1 2 3 4 5 6 7) (200 20 1) simpleGrading (1 1 1)
);

edges
(
	polyLine 0 1
	(
		(-1.00000000 -0.23481751 0.00000000)
		(-0.98000000 -0.23481751 0.00000000)
		(-0.96000000 -0.23481751 0.00000000)
		(-0.94000000 -0.23481751 0.00000000)
		(-0.92000000 -0.23481751 0.00000000)
		(-0.90000000 -0.23481751 0.00000000)
		(-0.88000000 -0.23481751 0.00000000)
		(-0.86000000 -0.23481751 0.00000000)
		(-0.84000000 -0.23481751 0.00000000)
		(-0.82000000 -0.23481751 0.00000000)
		(-0.80000000 -0.23481751 0.00000000)
		(-0.78000000 -0.23481751 0.00000000)
		(-0.76000000 -0.23481751 0.00000000)
		(-0.74000000 -0.23481751 0.00000000)
		(-0.72000000 -0.23481751 0.00000000)
		(-0.70000000 -0.23481751 0.00000000)
		(-0.68000000 -0.23481751 0.00000000)
		(-0.66000000 -0.23481751 0.00000000)
		(-0.64000000 -0.23481751 0.00000000)
		(-0.62000000 -0.23481751 0.00000000)
		(-0.60000000 -0.23481751 0.00000000)
		(-0.58000000 -0.23481751 0.00000000)
		(-0.56000000 -0.23481751 0.00000000)
		(-0.54000000 -0.23481751 0.00000000)
		(-0.52000000 -0.23481751 0.00000000)
		(-0.50000000 -0.23481751 0.00000000)
		(-0.48000000 -0.23481751 0.00000000)
		(-0.46000000 -0.23481751 0.00000000)
		(-0.44000000 -0.23481751 0.00000000)
		(-0.42000000 -0.23481751 0.00000000)
		(-0.40000000 -0.23481751 0.00000000)
		(-0.38000000 -0.23481751 0.00000000)
		(-0.36000000 -0.23481751 0.00000000)
		(-0.34000000 -0.23481751 0.00000000)
		(-0.32000000 -0.23481751 0.00000000)
		(-0.30000000 -0.23481751 0.00000000)
		(-0.28000000 -0.23481751 0.00000000)
		(-0.26000000 -0.23481751 0.00000000)
		(-0.24000000 -0.23481751 0.00000000)
		(-0.22000000 -0.23481751 0.00000000)
		(-0.20000000 -0.23481751 0.00000000)
		(-0.18000000 -0.23481751 0.00000000)
		(-0.16000000 -0.23481751 0.00000000)
		(-0.14000000 -0.23481751 0.00000000)
		(-0.12000000 -0.23481751 0.00000000)
		(-0.10000000 -0.23481751 0.00000000)
		(-0.08162011 -0.23496892 0.00000000)
		(-0.06324022 -0.23542315 0.00000000)
		(-0.04486034 -0.23618021 0.00000000)
		(-0.02648045 -0.23724009 0.00000000)
		(-0.00810056 -0.23860279 0.00000000)
		(0.01027933 -0.24026831 0.00000000)
		(0.02865922 -0.24223665 0.00000000)
		(0.04703911 -0.24450782 0.00000000)
		(0.06541899 -0.24708181 0.00000000)
		(0.08379888 -0.24995862 0.00000000)
		(0.10055866 -0.24970934 0.00000000)
		(0.11731844 -0.24835880 0.00000000)
		(0.13407821 -0.24591298 0.00000000)
		(0.15083799 -0.24238265 0.00000000)
		(0.16759777 -0.23778338 0.00000000)
		(0.18435754 -0.23213547 0.00000000)
		(0.20111732 -0.22546380 0.00000000)
		(0.21787709 -0.21779782 0.00000000)
		(0.23463687 -0.20917132 0.00000000)
		(0.25139665 -0.19962235 0.00000000)
		(0.26815642 -0.18919303 0.00000000)
		(0.28491620 -0.17792934 0.00000000)
		(0.30167598 -0.16588096 0.00000000)
		(0.31843575 -0.15310102 0.00000000)
		(0.33519553 -0.13964589 0.00000000)
		(0.35195531 -0.12557491 0.00000000)
		(0.36871508 -0.11095013 0.00000000)
		(0.38547486 -0.09583604 0.00000000)
		(0.40223464 -0.08029931 0.00000000)
		(0.41899441 -0.06440845 0.00000000)
		(0.43575419 -0.04823354 0.00000000)
		(0.45251397 -0.03184591 0.00000000)
		(0.46927374 -0.01531784 0.00000000)
		(0.48603352 0.00127779 0.00000000)
		(0.50279330 0.01786778 0.00000000)
		(0.51955307 0.03437897 0.00000000)
		(0.53631285 0.05073854 0.00000000)
		(0.55307263 0.06687436 0.00000000)
		(0.56983240 0.08271525 0.00000000)
		(0.58659218 0.09819135 0.00000000)
		(0.60335196 0.11323442 0.00000000)
		(0.62011173 0.12777811 0.00000000)
		(0.63687151 0.14175829 0.00000000)
		(0.65363128 0.15511329 0.00000000)
		(0.67039106 0.16778423 0.00000000)
		(0.68715084 0.17971522 0.00000000)
		(0.70391061 0.19085364 0.00000000)
		(0.72067039 0.20115038 0.00000000)
		(0.73743017 0.21056002 0.00000000)
		(0.75418994 0.21904107 0.00000000)
		(0.77094972 0.22655612 0.00000000)
		(0.78770950 0.23307203 0.00000000)
		(0.80446927 0.23856006 0.00000000)
		(0.82122905 0.24299602 0.00000000)
		(0.83798883 0.24636033 0.00000000)
		(0.85474860 0.24863817 0.00000000)
		(0.87150838 0.24981948 0.00000000)
		(0.88826816 0.24989907 0.00000000)
		(0.90502793 0.24887656 0.00000000)
		(0.92178771 0.24675648 0.00000000)
		(0.93854749 0.24354818 0.00000000)
		(0.95530726 0.23926580 0.00000000)
		(0.97206704 0.23392823 0.00000000)
		(0.98882682 0.22755901 0.00000000)
		(1.00558659 0.22018623 0.00000000)
		(1.02234637 0.21184240 0.00000000)
		(1.03910615 0.20256432 0.00000000)
		(1.05586592 0.19239291 0.00000000)
		(1.07262570 0.18137302 0.00000000)
		(1.08938547 0.16955326 0.00000000)
		(1.10614525 0.15698574 0.00000000)
		(1.12290503 0.14372590 0.00000000)
		(1.13966480 0.12983222 0.00000000)
		(1.15642458 0.11536595 0.00000000)
		(1.17318436 0.10039091 0.00000000)
		(1.18994413 0.08497314 0.00000000)
		(1.20670391 0.06918062 0.00000000)
		(1.22346369 0.05308301 0.00000000)
		(1.24022346 0.03675129 0.00000000)
		(1.25698324 0.02025750 0.00000000)
		(1.27374302 0.00367437 0.00000000)
		(1.29050279 -0.01292496 0.00000000)
		(1.30726257 -0.02946730 0.00000000)
		(1.32402235 -0.04587968 0.00000000)
		(1.34078212 -0.06208972 0.00000000)
		(1.35754190 -0.07802594 0.00000000)
		(1.37430168 -0.09361806 0.00000000)
		(1.39106145 -0.10879731 0.00000000)
		(1.40782123 -0.12349675 0.00000000)
		(1.42458101 -0.13765156 0.00000000)
		(1.44134078 -0.15119931 0.00000000)
		(1.45810056 -0.16408025 0.00000000)
		(1.47486034 -0.17623758 0.00000000)
		(1.49162011 -0.18761768 0.00000000)
		(1.50837989 -0.19817036 0.00000000)
		(1.52513966 -0.20784909 0.00000000)
		(1.54189944 -0.21661118 0.00000000)
		(1.55865922 -0.22441799 0.00000000)
		(1.57541899 -0.23123509 0.00000000)
		(1.59217877 -0.23703241 0.00000000)
		(1.60893855 -0.24178440 0.00000000)
		(1.62569832 -0.24547008 0.00000000)
		(1.64245810 -0.24807322 0.00000000)
		(1.65921788 -0.24958232 0.00000000)
		(1.67597765 -0.24999074 0.00000000)
		(1.69273743 -0.24929667 0.00000000)
		(1.70949721 -0.24750317 0.00000000)
		(1.72625698 -0.24461815 0.00000000)
		(1.74301676 -0.24065433 0.00000000)
		(1.75977654 -0.23562921 0.00000000)
		(1.77653631 -0.22956493 0.00000000)
		(1.79329609 -0.22248824 0.00000000)
		(1.81005587 -0.21443035 0.00000000)
		(1.82681564 -0.20542680 0.00000000)
		(1.84357542 -0.19551729 0.00000000)
		(1.86033520 -0.18474553 0.00000000)
		(1.87709497 -0.17315902 0.00000000)
		(1.89385475 -0.16080886 0.00000000)
		(1.91061453 -0.14774951 0.00000000)
		(1.92737430 -0.13403857 0.00000000)
		(1.94413408 -0.11973651 0.00000000)
		(1.96089385 -0.10490639 0.00000000)
		(1.97765363 -0.08961362 0.00000000)
		(1.99441341 -0.07392565 0.00000000)
		(2.01117318 -0.05791165 0.00000000)
		(2.02793296 -0.04164226 0.00000000)
		(2.04469274 -0.02518922 0.00000000)
		(2.06145251 -0.00862509 0.00000000)
		(2.07821229 0.00797708 0.00000000)
		(2.09497207 0.02454406 0.00000000)
		(2.11173184 0.04100280 0.00000000)
		(2.12849162 0.05728072 0.00000000)
		(2.14525140 0.07330602 0.00000000)
		(2.16201117 0.08900803 0.00000000)
		(2.17877095 0.10431751 0.00000000)
		(2.19553073 0.11916693 0.00000000)
		(2.21229050 0.13349082 0.00000000)
		(2.22905028 0.14722599 0.00000000)
		(2.24581006 0.16031188 0.00000000)
		(2.26256983 0.17269078 0.00000000)
		(2.27932961 0.18430809 0.00000000)
		(2.29608939 0.19511258 0.00000000)
		(2.31284916 0.20505660 0.00000000)
		(2.32960894 0.21409629 0.00000000)
		(2.34636872 0.22219180 0.00000000)
		(2.36312849 0.22930741 0.00000000)
		(2.37988827 0.23541175 0.00000000)
		(2.39664804 0.24047790 0.00000000)
		(2.41340782 0.24448352 0.00000000)
		(2.43016760 0.24741093 0.00000000)
		(2.44692737 0.24924723 0.00000000)
		(2.46368715 0.24998432 0.00000000)
		(2.48044693 0.24961895 0.00000000)
		(2.49720670 0.24815273 0.00000000)
		(2.51396648 0.24559213 0.00000000)
		(2.53072626 0.24194843 0.00000000)
		(2.54748603 0.23723772 0.00000000)
		(2.56424581 0.23148076 0.00000000)
		(2.58100559 0.22470295 0.00000000)
		(2.59776536 0.21693416 0.00000000)
		(2.61452514 0.20820868 0.00000000)
		(2.63128492 0.19856496 0.00000000)
		(2.64804469 0.18804556 0.00000000)
		(2.66480447 0.17669685 0.00000000)
		(2.68156425 0.16456888 0.00000000)
		(2.69832402 0.15171515 0.00000000)
		(2.71508380 0.13819234 0.00000000)
		(2.73184358 0.12406008 0.00000000)
		(2.74860335 0.10938070 0.00000000)
		(2.76536313 0.09421894 0.00000000)
		(2.78212291 0.07864166 0.00000000)
		(2.79888268 0.06271757 0.00000000)
		(2.81564246 0.04651688 0.00000000)
		(2.83240223 0.03011105 0.00000000)
		(2.84916201 0.01357242 0.00000000)
		(2.86592179 -0.00302606 0.00000000)
		(2.88268156 -0.01961119 0.00000000)
		(2.89944134 -0.03610984 0.00000000)
		(2.91620112 -0.05244924 0.00000000)
		(2.93296089 -0.06855733 0.00000000)
		(2.95166480 -0.08009420 0.00000000)
		(2.97036872 -0.09041666 0.00000000)
		(2.98907263 -0.09952472 0.00000000)
		(3.00777654 -0.10741837 0.00000000)
		(3.02648045 -0.11409761 0.00000000)
		(3.04518436 -0.11956244 0.00000000)
		(3.06388827 -0.12381286 0.00000000)
		(3.08259218 -0.12684888 0.00000000)
		(3.10129609 -0.12867049 0.00000000)
		(3.12000000 -0.12927770 0.00000000)
		(3.14000000 -0.12927770 0.00000000)
		(3.16000000 -0.12927770 0.00000000)
		(3.18000000 -0.12927770 0.00000000)
		(3.20000000 -0.12927770 0.00000000)
		(3.22000000 -0.12927770 0.00000000)
		(3.24000000 -0.12927770 0.00000000)
		(3.26000000 -0.12927770 0.00000000)
		(3.28000000 -0.12927770 0.00000000)
		(3.30000000 -0.12927770 0.00000000)
		(3.32000000 -0.12927770 0.00000000)
		(3.34000000 -0.12927770 0.00000000)
		(3.36000000 -0.12927770 0.00000000)
		(3.38000000 -0.12927770 0.00000000)
		(3.40000000 -0.12927770 0.00000000)
		(3.42000000 -0.12927770 0.00000000)
		(3.44000000 -0.12927770 0.00000000)
		(3.46000000 -0.12927770 0.00000000)
		(3.48000000 -0.12927770 0.00000000)
		(3.50000000 -0.12927770 0.00000000)
		(3.52000000 -0.12927770 0.00000000)
		(3.54000000 -0.12927770 0.00000000)
		(3.56000000 -0.12927770 0.00000000)
		(3.58000000 -0.12927770 0.00000000)
		(3.60000000 -0.12927770 0.00000000)
		(3.62000000 -0.12927770 0.00000000)
		(3.64000000 -0.12927770 0.00000000)
		(3.66000000 -0.12927770 0.00000000)
		(3.68000000 -0.12927770 0.00000000)
		(3.70000000 -0.12927770 0.00000000)
		(3.72000000 -0.12927770 0.00000000)
		(3.74000000 -0.12927770 0.00000000)
		(3.76000000 -0.12927770 0.00000000)
		(3.78000000 -0.12927770 0.00000000)
		(3.80000000 -0.12927770 0.00000000)
		(3.82000000 -0.12927770 0.00000000)
		(3.84000000 -0.12927770 0.00000000)
		(3.86000000 -0.12927770 0.00000000)
		(3.88000000 -0.12927770 0.00000000)
		(3.90000000 -0.12927770 0.00000000)
		(3.92000000 -0.12927770 0.00000000)
		(3.94000000 -0.12927770 0.00000000)
		(3.96000000 -0.12927770 0.00000000)
		(3.98000000 -0.12927770 0.00000000)
		(4.00000000 -0.12927770 0.00000000)
	)
	polyLine 4 5
	(
		(-1.00000000 -0.23481751 0.10000000)
		(-0.98000000 -0.23481751 0.10000000)
		(-0.96000000 -0.23481751 0.10000000)
		(-0.94000000 -0.23481751 0.10000000)
		(-0.92000000 -0.23481751 0.10000000)
		(-0.90000000 -0.23481751 0.10000000)
		(-0.88000000 -0.23481751 0.10000000)
		(-0.86000000 -0.23481751 0.10000000)
		(-0.84000000 -0.23481751 0.10000000)
		(-0.82000000 -0.23481751 0.10000000)
		(-0.80000000 -0.23481751 0.10000000)
		(-0.78000000 -0.23481751 0.10000000)
		(-0.76000000 -0.23481751 0.10000000)
		(-0.74000000 -0.23481751 0.10000000)
		(-0.72000000 -0.23481751 0.10000000)
		(-0.70000000 -0.23481751 0.10000000)
		(-0.68000000 -0.23481751 0.10000000)
		(-0.66000000 -0.23481751 0.10000000)
		(-0.64000000 -0.23481751 0.10000000)
		(-0.62000000 -0.23481751 0.10000000)
		(-0.60000000 -0.23481751 0.10000000)
		(-0.58000000 -0.23481751 0.10000000)
		(-0.56000000 -0.23481751 0.10000000)
		(-0.54000000 -0.23481751 0.10000000)
		(-0.52000000 -0.23481751 0.10000000)
		(-0.50000000 -0.23481751 0.10000000)
		(-0.48000000 -0.23481751 0.10000000)
		(-0.46000000 -0.23481751 0.10000000)
		(-0.44000000 -0.23481751 0.10000000)
		(-0.42000000 -0.23481751 0.10000000)
		(-0.40000000 -0.23481751 0.10000000)
		(-0.38000000 -0.23481751 0.10000000)
		(-0.36000000 -0.23481751 0.10000000)
		(-0.34000000 -0.23481751 0.10000000)
		(-0.32000000 -0.23481751 0.10000000)
		(-0.30000000 -0.23481751 0.10000000)
		(-0.28000000 -0.23481751 0.10000000)
		(-0.26000000 -0.23481751 0.10000000)
		(-0.24000000 -0.23481751 0.10000000)
		(-0.22000000 -0.23481751 0.10000000)
		(-0.20000000 -0.23481751 0.10000000)
		(-0.18000000 -0.23481751 0.10000000)
		(-0.16000000 -0.23481751 0.10000000)
		(-0.14000000 -0.23481751 0.10000000)
		(-0.12000000 -0.23481751 0.10000000)
		(-0.10000000 -0.23481751 0.10000000)
		(-0.08162011 -0.23496892 0.10000000)
		(-0.06324022 -0.23542315 0.10000000)
		(-0.04486034 -0.23618021 0.10000000)
		(-0.02648045 -0.23724009 0.10000000)
		(-0.00810056 -0.23860279 0.10000000)
		(0.01027933 -0.24026831 0.10000000)
		(0.02865922 -0.24223665 0.10000000)
		(0.04703911 -0.24450782 0.10000000)
		(0.06541899 -0.24708181 0.10000000)
		(0.08379888 -0.24995862 0.10000000)
		(0.10055866 -0.24970934 0.10000000)
		(0.11731844 -0.24835880 0.10000000)
		(0.13407821 -0.24591298 0.10000000)
		(0.15083799 -0.24238265 0.10000000)
		(0.16759777 -0.23778338 0.10000000)
		(0.18435754 -0.23213547 0.10000000)
		(0.20111732 -0.22546380 0.10000000)
		(0.21787709 -0.21779782 0.10000000)
		(0.23463687 -0.20917132 0.10000000)
		(0.25139665 -0.19962235 0.10000000)
		(0.26815642 -0.18919303 0.10000000)
		(0.28491620 -0.17792934 0.10000000)
		(0.30167598 -0.16588096 0.10000000)
		(0.31843575 -0.15310102 0.10000000)
		(0.33519553 -0.13964589 0.10000000)
		(0.35195531 -0.12557491 0.10000000)
		(0.36871508 -0.11095013 0.10000000)
		(0.38547486 -0.09583604 0.10000000)
		(0.40223464 -0.08029931 0.10000000)
		(0.41899441 -0.06440845 0.10000000)
		(0.43575419 -0.04823354 0.10000000)
		(0.45251397 -0.03184591 0.10000000)
		(0.46927374 -0.01531784 0.10000000)
		(0.48603352 0.00127779 0.10000000)
		(0.50279330 0.01786778 0.10000000)
		(0.51955307 0.03437897 0.10000000)
		(0.53631285 0.05073854 0.10000000)
		(0.55307263 0.06687436 0.10000000)
		(0.56983240 0.08271525 0.10000000)
		(0.58659218 0.09819135 0.10000000)
		(0.60335196 0.11323442 0.10000000)
		(0.62011173 0.12777811 0.10000000)
		(0.63687151 0.14175829 0.10000000)
		(0.65363128 0.15511329 0.10000000)
		(0.67039106 0.16778423 0.10000000)
		(0.68715084 0.17971522 0.10000000)
		(0.70391061 0.19085364 0.10000000)
		(0.72067039 0.20115038 0.10000000)
		(0.73743017 0.21056002 0.10000000)
		(0.75418994 0.21904107 0.10000000)
		(0.77094972 0.22655612 0.10000000)
		(0.78770950 0.23307203 0.10000000)
		(0.80446927 0.23856006 0.10000000)
		(0.82122905 0.24299602 0.10000000)
		(0.83798883 0.24636033 0.10000000)
		(0.85474860 0.24863817 0.10000000)
		(0.87150838 0.24981948 0.10000000)
		(0.88826816 0.24989907 0.10000000)
		(0.90502793 0.24887656 0.10000000)
		(0.92178771 0.24675648 0.10000000)
		(0.93854749 0.24354818 0.10000000)
		(0.95530726 0.23926580 0.10000000)
		(0.97206704 0.23392823 0.10000000)
		(0.98882682 0.22755901 0.10000000)
		(1.00558659 0.22018623 0.10000000)
		(1.02234637 0.21184240 0.10000000)
		(1.03910615 0.20256432 0.10000000)
		(1.05586592 0.19239291 0.10000000)
		(1.07262570 0.18137302 0.10000000)
		(1.08938547 0.16955326 0.10000000)
		(1.10614525 0.15698574 0.10000000)
		(1.12290503 0.14372590 0.10000000)
		(1.13966480 0.12983222 0.10000000)
		(1.15642458 0.11536595 0.10000000)
		(1.17318436 0.10039091 0.10000000)
		(1.18994413 0.08497314 0.10000000)
		(1.20670391 0.06918062 0.10000000)
		(1.22346369 0.05308301 0.10000000)
		(1.24022346 0.03675129 0.10000000)
		(1.25698324 0.02025750 0.10000000)
		(1.27374302 0.00367437 0.10000000)
		(1.29050279 -0.01292496 0.10000000)
		(1.30726257 -0.02946730 0.10000000)
		(1.32402235 -0.04587968 0.10000000)
		(1.34078212 -0.06208972 0.10000000)
		(1.35754190 -0.07802594 0.10000000)
		(1.37430168 -0.09361806 0.10000000)
		(1.39106145 -0.10879731 0.10000000)
		(1.40782123 -0.12349675 0.10000000)
		(1.42458101 -0.13765156 0.10000000)
		(1.44134078 -0.15119931 0.10000000)
		(1.45810056 -0.16408025 0.10000000)
		(1.47486034 -0.17623758 0.10000000)
		(1.49162011 -0.18761768 0.10000000)
		(1.50837989 -0.19817036 0.10000000)
		(1.52513966 -0.20784909 0.10000000)
		(1.54189944 -0.21661118 0.10000000)
		(1.55865922 -0.22441799 0.10000000)
		(1.57541899 -0.23123509 0.10000000)
		(1.59217877 -0.23703241 0.10000000)
		(1.60893855 -0.24178440 0.10000000)
		(1.62569832 -0.24547008 0.10000000)
		(1.64245810 -0.24807322 0.10000000)
		(1.65921788 -0.24958232 0.10000000)
		(1.67597765 -0.24999074 0.10000000)
		(1.69273743 -0.24929667 0.10000000)
		(1.70949721 -0.24750317 0.10000000)
		(1.72625698 -0.24461815 0.10000000)
		(1.74301676 -0.24065433 0.10000000)
		(1.75977654 -0.23562921 0.10000000)
		(1.77653631 -0.22956493 0.10000000)
		(1.79329609 -0.22248824 0.10000000)
		(1.81005587 -0.21443035 0.10000000)
		(1.82681564 -0.20542680 0.10000000)
		(1.84357542 -0.19551729 0.10000000)
		(1.86033520 -0.18474553 0.10000000)
		(1.87709497 -0.17315902 0.10000000)
		(1.89385475 -0.16080886 0.10000000)
		(1.91061453 -0.14774951 0.10000000)
		(1.92737430 -0.13403857 0.10000000)
		(1.94413408 -0.11973651 0.10000000)
		(1.96089385 -0.10490639 0.10000000)
		(1.97765363 -0.08961362 0.10000000)
		(1.99441341 -0.07392565 0.10000000)
		(2.01117318 -0.05791165 0.10000000)
		(2.02793296 -0.04164226 0.10000000)
		(2.04469274 -0.02518922 0.10000000)
		(2.06145251 -0.00862509 0.10000000)
		(2.07821229 0.00797708 0.10000000)
		(2.09497207 0.02454406 0.10000000)
		(2.11173184 0.04100280 0.10000000)
		(2.12849162 0.05728072 0.10000000)
		(2.14525140 0.07330602 0.10000000)
		(2.16201117 0.08900803 0.10000000)
		(2.17877095 0.10431751 0.10000000)
		(2.19553073 0.11916693 0.10000000)
		(2.21229050 0.13349082 0.10000000)
		(2.22905028 0.14722599 0.10000000)
		(2.24581006 0.16031188 0.10000000)
		(2.26256983 0.17269078 0.10000000)
		(2.27932961 0.18430809 0.10000000)
		(2.29608939 0.19511258 0.10000000)
		(2.31284916 0.20505660 0.10000000)
		(2.32960894 0.21409629 0.10000000)
		(2.34636872 0.22219180 0.10000000)
		(2.36312849 0.22930741 0.10000000)
		(2.37988827 0.23541175 0.10000000)
		(2.39664804 0.24047790 0.10000000)
		(2.41340782 0.24448352 0.10000000)
		(2.43016760 0.24741093 0.10000000)
		(2.44692737 0.24924723 0.10000000)
		(2.46368715 0.24998432 0.10000000)
		(2.48044693 0.24961895 0.10000000)
		(2.49720670 0.24815273 0.10000000)
		(2.51396648 0.24559213 0.10000000)
		(2.53072626 0.24194843 0.10000000)
		(2.54748603 0.23723772 0.10000000)
		(2.56424581 0.23148076 0.10000000)
		(2.58100559 0.22470295 0.10000000)
		(2.59776536 0.21693416 0.10000000)
		(2.61452514 0.20820868 0.10000000)
		(2.63128492 0.19856496 0.10000000)
		(2.64804469 0.18804556 0.10000000)
		(2.66480447 0.17669685 0.10000000)
		(2.68156425 0.16456888 0.10000000)
		(2.69832402 0.15171515 0.10000000)
		(2.71508380 0.13819234 0.10000000)
		(2.73184358 0.12406008 0.10000000)
		(2.74860335 0.10938070 0.10000000)
		(2.76536313 0.09421894 0.10000000)
		(2.78212291 0.07864166 0.10000000)
		(2.79888268 0.06271757 0.10000000)
		(2.81564246 0.04651688 0.10000000)
		(2.83240223 0.03011105 0.10000000)
		(2.84916201 0.01357242 0.10000000)
		(2.86592179 -0.00302606 0.10000000)
		(2.88268156 -0.01961119 0.10000000)
		(2.89944134 -0.03610984 0.10000000)
		(2.91620112 -0.05244924 0.10000000)
		(2.93296089 -0.06855733 0.10000000)
		(2.95166480 -0.08009420 0.10000000)
		(2.97036872 -0.09041666 0.10000000)
		(2.98907263 -0.09952472 0.10000000)
		(3.00777654 -0.10741837 0.10000000)
		(3.02648045 -0.11409761 0.10000000)
		(3.04518436 -0.11956244 0.10000000)
		(3.06388827 -0.12381286 0.10000000)
		(3.08259218 -0.12684888 0.10000000)
		(3.10129609 -0.12867049 0.10000000)
		(3.12000000 -0.12927770 0.10000000)
		(3.14000000 -0.12927770 0.10000000)
		(3.16000000 -0.12927770 0.10000000)
		(3.18000000 -0.12927770 0.10000000)
		(3.20000000 -0.12927770 0.10000000)
		(3.22000000 -0.12927770 0.10000000)
		(3.24000000 -0.12927770 0.10000000)
		(3.26000000 -0.12927770 0.10000000)
		(3.28000000 -0.12927770 0.10000000)
		(3.30000000 -0.12927770 0.10000000)
		(3.32000000 -0.12927770 0.10000000)
		(3.34000000 -0.12927770 0.10000000)
		(3.36000000 -0.12927770 0.10000000)
		(3.38000000 -0.12927770 0.10000000)
		(3.40000000 -0.12927770 0.10000000)
		(3.42000000 -0.12927770 0.10000000)
		(3.44000000 -0.12927770 0.10000000)
		(3.46000000 -0.12927770 0.10000000)
		(3.48000000 -0.12927770 0.10000000)
		(3.50000000 -0.12927770 0.10000000)
		(3.52000000 -0.12927770 0.10000000)
		(3.54000000 -0.12927770 0.10000000)
		(3.56000000 -0.12927770 0.10000000)
		(3.58000000 -0.12927770 0.10000000)
		(3.60000000 -0.12927770 0.10000000)
		(3.62000000 -0.12927770 0.10000000)
		(3.64000000 -0.12927770 0.10000000)
		(3.66000000 -0.12927770 0.10000000)
		(3.68000000 -0.12927770 0.10000000)
		(3.70000000 -0.12927770 0.10000000)
		(3.72000000 -0.12927770 0.10000000)
		(3.74000000 -0.12927770 0.10000000)
		(3.76000000 -0.12927770 0.10000000)
		(3.78000000 -0.12927770 0.10000000)
		(3.80000000 -0.12927770 0.10000000)
		(3.82000000 -0.12927770 0.10000000)
		(3.84000000 -0.12927770 0.10000000)
		(3.86000000 -0.12927770 0.10000000)
		(3.88000000 -0.12927770 0.10000000)
		(3.90000000 -0.12927770 0.10000000)
		(3.92000000 -0.12927770 0.10000000)
		(3.94000000 -0.12927770 0.10000000)
		(3.96000000 -0.12927770 0.10000000)
		(3.98000000 -0.12927770 0.10000000)
		(4.00000000 -0.12927770 0.10000000)
	)
	polyLine 3 2
	(
		(-1.00000000 0.26518249 0.00000000)
		(-0.98000000 0.26390403 0.00000000)
		(-0.96000000 0.26262557 0.00000000)
		(-0.94000000 0.26134712 0.00000000)
		(-0.92000000 0.26006866 0.00000000)
		(-0.90000000 0.25879020 0.00000000)
		(-0.88000000 0.25751174 0.00000000)
		(-0.86000000 0.25623328 0.00000000)
		(-0.84000000 0.25495482 0.00000000)
		(-0.82000000 0.25367637 0.00000000)
		(-0.80000000 0.25239791 0.00000000)
		(-0.78000000 0.25111945 0.00000000)
		(-0.76000000 0.24984099 0.00000000)
		(-0.74000000 0.24856253 0.00000000)
		(-0.72000000 0.24728407 0.00000000)
		(-0.70000000 0.24600562 0.00000000)
		(-0.68000000 0.24472716 0.00000000)
		(-0.66000000 0.24344870 0.00000000)
		(-0.64000000 0.24217024 0.00000000)
		(-0.62000000 0.24089178 0.00000000)
		(-0.60000000 0.23961332 0.00000000)
		(-0.58000000 0.23833487 0.00000000)
		(-0.56000000 0.23705641 0.00000000)
		(-0.54000000 0.23577795 0.00000000)
		(-0.52000000 0.23449949 0.00000000)
		(-0.50000000 0.23322103 0.00000000)
		(-0.48000000 0.23194257 0.00000000)
		(-0.46000000 0.23066412 0.00000000)
		(-0.44000000 0.22938566 0.00000000)
		(-0.42000000 0.22810720 0.00000000)
		(-0.40000000 0.22682874 0.00000000)
		(-0.38000000 0.22555028 0.00000000)
		(-0.36000000 0.22427183 0.00000000)
		(-0.34000000 0.22299337 0.00000000)
		(-0.32000000 0.22171491 0.00000000)
		(-0.30000000 0.22043645 0.00000000)
		(-0.28000000 0.21915799 0.00000000)
		(-0.26000000 0.21787953 0.00000000)
		(-0.24000000 0.21660108 0.00000000)
		(-0.22000000 0.21532262 0.00000000)
		(-0.20000000 0.21404416 0.00000000)
		(-0.18000000 0.21276570 0.00000000)
		(-0.16000000 0.21148724 0.00000000)
		(-0.14000000 0.21020878 0.00000000)
		(-0.12000000 0.20893033 0.00000000)
		(-0.10000000 0.20765187 0.00000000)
		(-0.08162011 0.20688683 0.00000000)
		(-0.06324022 0.20575192 0.00000000)
		(-0.04486034 0.20424715 0.00000000)
		(-0.02648045 0.20237252 0.00000000)
		(-0.00810056 0.20012802 0.00000000)
		(0.01027933 0.19751366 0.00000000)
		(0.02865922 0.19452944 0.00000000)
		(0.04703911 0.19117535 0.00000000)
		(0.06541899 0.18745140 0.00000000)
		(0.08379888 0.18335759 0.00000000)
		(0.10055866 0.18367338 0.00000000)
		(0.11731844 0.18538420 0.00000000)
		(0.13407821 0.18848252 0.00000000)
		(0.15083799 0.19295467 0.00000000)
		(0.16759777 0.19878092 0.00000000)
		(0.18435754 0.20593559 0.00000000)
		(0.20111732 0.21438711 0.00000000)
		(0.21787709 0.22409823 0.00000000)
		(0.23463687 0.23502609 0.00000000)
		(0.25139665 0.24712253 0.00000000)
		(0.26815642 0.26033419 0.00000000)
		(0.28491620 0.27460280 0.00000000)
		(0.30167598 0.28986543 0.00000000)
		(0.31843575 0.30605479 0.00000000)
		(0.33519553 0.32309947 0.00000000)
		(0.35195531 0.34092430 0.00000000)
		(0.36871508 0.35945067 0.00000000)
		(0.38547486 0.37859688 0.00000000)
		(0.40223464 0.39827849 0.00000000)
		(0.41899441 0.41840871 0.00000000)
		(0.43575419 0.43889875 0.00000000)
		(0.45251397 0.45965826 0.00000000)
		(0.46927374 0.48059568 0.00000000)
		(0.48603352 0.50161868 0.00000000)
		(0.50279330 0.52263453 0.00000000)
		(0.51955307 0.54355057 0.00000000)
		(0.53631285 0.56427454 0.00000000)
		(0.55307263 0.58471505 0.00000000)
		(0.56983240 0.60478196 0.00000000)
		(0.58659218 0.62438677 0.00000000)
		(0.60335196 0.64344302 0.00000000)
		(0.62011173 0.66186667 0.00000000)
		(0.63687151 0.67957647 0.00000000)
		(0.65363128 0.69649431 0.00000000)
		(0.67039106 0.71254560 0.00000000)
		(0.68715084 0.72765953 0.00000000)
		(0.70391061 0.74176945 0.00000000)
		(0.72067039 0.75481314 0.00000000)
		(0.73743017 0.76673308 0.00000000)
		(0.75418994 0.77747670 0.00000000)
		(0.77094972 0.78699660 0.00000000)
		(0.78770950 0.79525082 0.00000000)
		(0.80446927 0.80220295 0.00000000)
		(0.82122905 0.80782233 0.00000000)
		(0.83798883 0.81208418 0.00000000)
		(0.85474860 0.81496969 0.00000000)
		(0.87150838 0.81646616 0.00000000)
		(0.88826816 0.81656697 0.00000000)
		(0.90502793 0.81527168 0.00000000)
		(0.92178771 0.81258601 0.00000000)
		(0.93854749 0.80852180 0.00000000)
		(0.95530726 0.80309697 0.00000000)
		(0.97206704 0.79633545 0.00000000)
		(0.98882682 0.78826705 0.00000000)
		(1.00558659 0.77892736 0.00000000)
		(1.02234637 0.76835757 0.00000000)
		(1.03910615 0.75660429 0.00000000)
		(1.05586592 0.74371936 0.00000000)
		(1.07262570 0.72975959 0.00000000)
		(1.08938547 0.71478656 0.00000000)
		(1.10614525 0.69886629 0.00000000)
		(1.12290503 0.68206900 0.00000000)
		(1.13966480 0.66446877 0.00000000)
		(1.15642458 0.64614320 0.00000000)
		(1.17318436 0.62717313 0.00000000)
		(1.18994413 0.60764221 0.00000000)
		(1.20670391 0.58763658 0.00000000)
		(1.22346369 0.56724446 0.00000000)
		(1.24022346 0.54655578 0.00000000)
		(1.25698324 0.52566178 0.00000000)
		(1.27374302 0.50465462 0.00000000)
		(1.29050279 0.48362693 0.00000000)
		(1.30726257 0.46267144 0.00000000)
		(1.32402235 0.44188058 0.00000000)
		(1.34078212 0.42134603 0.00000000)
		(1.35754190 0.40115835 0.00000000)
		(1.37430168 0.38140658 0.00000000)
		(1.39106145 0.36217782 0.00000000)
		(1.40782123 0.34355687 0.00000000)
		(1.42458101 0.32562585 0.00000000)
		(1.44134078 0.30846384 0.00000000)
		(1.45810056 0.29214653 0.00000000)
		(1.47486034 0.27674588 0.00000000)
		(1.49162011 0.26232981 0.00000000)
		(1.50837989 0.24896188 0.00000000)
		(1.52513966 0.23670107 0.00000000)
		(1.54189944 0.22560144 0.00000000)
		(1.55865922 0.21571193 0.00000000)
		(1.57541899 0.20707617 0.00000000)
		(1.59217877 0.19973224 0.00000000)
		(1.60893855 0.19371252 0.00000000)
		(1.62569832 0.18904357 0.00000000)
		(1.64245810 0.18574597 0.00000000)
		(1.65921788 0.18383427 0.00000000)
		(1.67597765 0.18331690 0.00000000)
		(1.69273743 0.18419614 0.00000000)
		(1.70949721 0.18646811 0.00000000)
		(1.72625698 0.19012279 0.00000000)
		(1.74301676 0.19514406 0.00000000)
		(1.75977654 0.20150979 0.00000000)
		(1.77653631 0.20919190 0.00000000)
		(1.79329609 0.21815650 0.00000000)
		(1.81005587 0.22836406 0.00000000)
		(1.82681564 0.23976957 0.00000000)
		(1.84357542 0.25232273 0.00000000)
		(1.86033520 0.26596818 0.00000000)
		(1.87709497 0.28064573 0.00000000)
		(1.89385475 0.29629066 0.00000000)
		(1.91061453 0.31283397 0.00000000)
		(1.92737430 0.33020271 0.00000000)
		(1.94413408 0.34832027 0.00000000)
		(1.96089385 0.36710676 0.00000000)
		(1.97765363 0.38647932 0.00000000)
		(1.99441341 0.40635252 0.00000000)
		(2.01117318 0.42663872 0.00000000)
		(2.02793296 0.44724845 0.00000000)
		(2.04469274 0.46809082 0.00000000)
		(2.06145251 0.48907391 0.00000000)
		(2.07821229 0.51010519 0.00000000)
		(2.09497207 0.53109191 0.00000000)
		(2.11173184 0.55194150 0.00000000)
		(2.12849162 0.57256203 0.00000000)
		(2.14525140 0.59286255 0.00000000)
		(2.16201117 0.61275354 0.00000000)
		(2.17877095 0.63214727 0.00000000)
		(2.19553073 0.65095821 0.00000000)
		(2.21229050 0.66910341 0.00000000)
		(2.22905028 0.68650284 0.00000000)
		(2.24581006 0.70307978 0.00000000)
		(2.26256983 0.71876111 0.00000000)
		(2.27932961 0.73347768 0.00000000)
		(2.29608939 0.74716458 0.00000000)
		(2.31284916 0.75976146 0.00000000)
		(2.32960894 0.77121276 0.00000000)
		(2.34636872 0.78146798 0.00000000)
		(2.36312849 0.79048189 0.00000000)
		(2.37988827 0.79821474 0.00000000)
		(2.39664804 0.80463244 0.00000000)
		(2.41340782 0.80970666 0.00000000)
		(2.43016760 0.81341505 0.00000000)
		(2.44692737 0.81574123 0.00000000)
		(2.46368715 0.81667496 0.00000000)
		(2.48044693 0.81621212 0.00000000)