/*--------------------------------*- C++ -*----------------------------------*\\
/*--------------------------------*- C++ -*----------------------------------*\\
| =========                 |                                                 |
| \\\\      /  F ield         | OpenFOAM: The Open Source CFD Toolbox           |
|  \\\\    /   O peration     | Version:  v2012                                 |
|   \\\\  /    A nd           | Website:  www.openfoam.com                      |
|    \\\\/     M anipulation  |                                                 |
\\*---------------------------------------------------------------------------*/
FoamFile
{
    version     2.0;
    format      ascii;
    class       dictionary;
    object      blockMeshDict;
}
// * * * * * * * * * * * * * * * * * * * * * * * * * * * * * * * * * * * * * //

scale   0.01;

xmin -1;
xmax 5;
ymin 0;
ymax 0.5;
zmin 0;
zmax 0.1;

vertices
(
    (-1.00000000 0.01735598 0.00000000)
    (4.00000000 -0.24991774 0.00000000)
    (4.00000000 0.25008226 0.00000000)
    (-1.00000000 0.51735598 0.00000000)
    (-1.00000000 0.01735598 0.10000000)
    (4.00000000 -0.24991774 0.10000000)
    (4.00000000 0.25008226 0.10000000)
    (-1.00000000 0.51735598 0.10000000)
);

blocks
(
    hex (0 1 2 3 4 5 6 7) (200 20 1) simpleGrading (1 1 1)
);

edges
(
	polyLine 0 1
	(
		(-1.00000000 0.01735598 0.00000000)
		(-0.98000000 0.01735598 0.00000000)
		(-0.96000000 0.01735598 0.00000000)
		(-0.94000000 0.01735598 0.00000000)
		(-0.92000000 0.01735598 0.00000000)
		(-0.90000000 0.01735598 0.00000000)
		(-0.88000000 0.01735598 0.00000000)
		(-0.86000000 0.01735598 0.00000000)
		(-0.84000000 0.01735598 0.00000000)
		(-0.82000000 0.01735598 0.00000000)
		(-0.80000000 0.01735598 0.00000000)
		(-0.78000000 0.01735598 0.00000000)
		(-0.76000000 0.01735598 0.00000000)
		(-0.74000000 0.01735598 0.00000000)
		(-0.72000000 0.01735598 0.00000000)
		(-0.70000000 0.01735598 0.00000000)
		(-0.68000000 0.01735598 0.00000000)
		(-0.66000000 0.01735598 0.00000000)
		(-0.64000000 0.01735598 0.00000000)
		(-0.62000000 0.01735598 0.00000000)
		(-0.60000000 0.01735598 0.00000000)
		(-0.58000000 0.01735598 0.00000000)
		(-0.56000000 0.01735598 0.00000000)
		(-0.54000000 0.01735598 0.00000000)
		(-0.52000000 0.01735598 0.00000000)
		(-0.50000000 0.01735598 0.00000000)
		(-0.48000000 0.01735598 0.00000000)
		(-0.46000000 0.01735598 0.00000000)
		(-0.44000000 0.01735598 0.00000000)
		(-0.42000000 0.01735598 0.00000000)
		(-0.40000000 0.01735598 0.00000000)
		(-0.38000000 0.01735598 0.00000000)
		(-0.36000000 0.01735598 0.00000000)
		(-0.34000000 0.01735598 0.00000000)
		(-0.32000000 0.01735598 0.00000000)
		(-0.30000000 0.01735598 0.00000000)
		(-0.28000000 0.01735598 0.00000000)
		(-0.26000000 0.01735598 0.00000000)
		(-0.24000000 0.01735598 0.00000000)
		(-0.22000000 0.01735598 0.00000000)
		(-0.20000000 0.01735598 0.00000000)
		(-0.18000000 0.01735598 0.00000000)
		(-0.16000000 0.01735598 0.00000000)
		(-0.14000000 0.01735598 0.00000000)
		(-0.12000000 0.01735598 0.00000000)
		(-0.10000000 0.01735598 0.00000000)
		(-0.08162011 0.01849106 0.00000000)
		(-0.06324022 0.02189631 0.00000000)
		(-0.04486034 0.02757171 0.00000000)
		(-0.02648045 0.03551728 0.00000000)
		(-0.00810056 0.04573301 0.00000000)
		(0.01027933 0.05821891 0.00000000)
		(0.02865922 0.07297496 0.00000000)
		(0.04703911 0.09000118 0.00000000)
		(0.06541899 0.10929757 0.00000000)
		(0.08379888 0.13086411 0.00000000)
		(0.10055866 0.15073617 0.00000000)
		(0.11731844 0.16921188 0.00000000)
		(0.13407821 0.18612009 0.00000000)
		(0.15083799 0.20130416 0.00000000)
		(0.16759777 0.21462344 0.00000000)
		(0.18435754 0.22595454 0.00000000)
		(0.20111732 0.23519250 0.00000000)
		(0.21787709 0.24225175 0.00000000)
		(0.23463687 0.24706688 0.00000000)
		(0.25139665 0.24959330 0.00000000)
		(0.26815642 0.24980759 0.00000000)
		(0.28491620 0.24770778 0.00000000)
		(0.30167598 0.24331331 0.00000000)
		(0.31843575 0.23666490 0.00000000)
		(0.33519553 0.22782413 0.00000000)
		(0.35195531 0.21687290 0.00000000)
		(0.36871508 0.20391265 0.00000000)
		(0.38547486 0.18906345 0.00000000)
		(0.40223464 0.17246285 0.00000000)
		(0.41899441 0.15426464 0.00000000)
		(0.43575419 0.13463738 0.00000000)
		(0.45251397 0.11376290 0.00000000)
		(0.46927374 0.09183457 0.00000000)
		(0.48603352 0.06905553 0.00000000)
		(0.50279330 0.04563679 0.00000000)
		(0.51955307 0.02179529 0.00000000)
		(0.53631285 -0.00224811 0.00000000)
		(0.55307263 -0.02627068 0.00000000)
		(0.56983240 -0.05004990 0.00000000)
		(0.58659218 -0.07336548 0.00000000)
		(0.60335196 -0.09600143 0.00000000)
		(0.62011173 -0.11774806 0.00000000)
		(0.63687151 -0.13840393 0.00000000)
		(0.65363128 -0.15777769 0.00000000)
		(0.67039106 -0.17568987 0.00000000)
		(0.68715084 -0.19197454 0.00000000)
		(0.70391061 -0.20648083 0.00000000)
		(0.72067039 -0.21907439 0.00000000)
		(0.73743017 -0.22963853 0.00000000)
		(0.75418994 -0.23807541 0.00000000)
		(0.77094972 -0.24430686 0.00000000)
		(0.78770950 -0.24827516 0.00000000)
		(0.80446927 -0.24994355 0.00000000)
		(0.82122905 -0.24929658 0.00000000)
		(0.83798883 -0.24634023 0.00000000)
		(0.85474860 -0.24110190 0.00000000)
		(0.87150838 -0.23363011 0.00000000)
		(0.88826816 -0.22399407 0.00000000)
		(0.90502793 -0.21228305 0.00000000)
		(0.92178771 -0.19860554 0.00000000)
		(0.93854749 -0.18308823 0.00000000)
		(0.95530726 -0.16587488 0.00000000)
		(0.97206704 -0.14712494 0.00000000)
		(0.98882682 -0.12701209 0.00000000)
		(1.00558659 -0.10572266 0.00000000)
		(1.02234637 -0.08345387 0.00000000)
		(1.03910615 -0.06041199 0.00000000)
		(1.05586592 -0.03681049 0.00000000)
		(1.07262570 -0.01286799 0.00000000)
		(1.08938547 0.01119372 0.00000000)
		(1.10614525 0.03515173 0.00000000)
		(1.12290503 0.05878411 0.00000000)
		(1.13966480 0.08187194 0.00000000)
		(1.15642458 0.10420134 0.00000000)
		(1.17318436 0.12556547 0.00000000)
		(1.18994413 0.14576642 0.00000000)
		(1.20670391 0.16461705 0.00000000)
		(1.22346369 0.18194275 0.00000000)
		(1.24022346 0.19758301 0.00000000)
		(1.25698324 0.21139294 0.00000000)
		(1.27374302 0.22324463 0.00000000)
		(1.29050279 0.23302828 0.00000000)
		(1.30726257 0.24065326 0.00000000)
		(1.32402235 0.24604893 0.00000000)
		(1.34078212 0.24916532 0.00000000)
		(1.35754190 0.24997355 0.00000000)
		(1.37430168 0.24846614 0.00000000)
		(1.39106145 0.24465705 0.00000000)
		(1.40782123 0.23858156 0.00000000)
		(1.42458101 0.23029596 0.00000000)
		(1.44134078 0.21987701 0.00000000)
		(1.45810056 0.20742121 0.00000000)
		(1.47486034 0.19304395 0.00000000)
		(1.49162011 0.17687842 0.00000000)
		(1.50837989 0.15907437 0.00000000)
		(1.52513966 0.13979672 0.00000000)
		(1.54189944 0.11922406 0.00000000)
		(1.55865922 0.09754696 0.00000000)
		(1.57541899 0.07496623 0.00000000)
		(1.59217877 0.05169105 0.00000000)
		(1.60893855 0.02793702 0.00000000)
		(1.62569832 0.00392420 0.00000000)
		(1.64245810 -0.02012498 0.00000000)
		(1.65921788 -0.04398773 0.00000000)
		(1.67597765 -0.06744299 0.00000000)
		(1.69273743 -0.09027349 0.00000000)
		(1.70949721 -0.11226774 0.00000000)
		(1.72625698 -0.13322199 0.00000000)
		(1.74301676 -0.15294213 0.00000000)
		(1.75977654 -0.17124549 0.00000000)
		(1.77653631 -0.18796250 0.00000000)
		(1.79329609 -0.20293831 0.00000000)
		(1.81005587 -0.21603419 0.00000000)
		(1.82681564 -0.22712883 0.00000000)
		(1.84357542 -0.23611945 0.00000000)
		(1.86033520 -0.24292276 0.00000000)
		(1.87709497 -0.24747574 0.00000000)
		(1.89385475 -0.24973622 0.00000000)
		(1.91061453 -0.24968326 0.00000000)
		(1.92737430 -0.24731734 0.00000000)
		(1.94413408 -0.24266038 0.00000000)
		(1.96089385 -0.23575553 0.00000000)
		(1.97765363 -0.22666674 0.00000000)
		(1.99441341 -0.21547821 0.00000000)
		(2.01117318 -0.20229359 0.00000000)
		(2.02793296 -0.18723501 0.00000000)
		(2.04469274 -0.17044197 0.00000000)
		(2.06145251 -0.15207003 0.00000000)
		(2.07821229 -0.13228939 0.00000000)
		(2.09497207 -0.11128327 0.00000000)
		(2.11173184 -0.08924627 0.00000000)
		(2.12849162 -0.06638254 0.00000000)
		(2.14525140 -0.04290387 0.00000000)
		(2.16201117 -0.01902775 0.00000000)
		(2.17877095 0.00502463 0.00000000)
		(2.19553073 0.02903046 0.00000000)
		(2.21229050 0.05276737 0.00000000)
		(2.22905028 0.07601546 0.00000000)
		(2.24581006 0.09855938 0.00000000)
		(2.26256983 0.12019029 0.00000000)
		(2.27932961 0.14070781 0.00000000)
		(2.29608939 0.15992188 0.00000000)
		(2.31284916 0.17765450 0.00000000)
		(2.32960894 0.19374141 0.00000000)
		(2.34636872 0.20803359 0.00000000)
		(2.36312849 0.22039864 0.00000000)
		(2.37988827 0.23072201 0.00000000)
		(2.39664804 0.23890807 0.00000000)
		(2.41340782 0.24488100 0.00000000)
		(2.43016760 0.24858546 0.00000000)
		(2.44692737 0.24998714 0.00000000)
		(2.46368715 0.24907304 0.00000000)
		(2.48044693 0.24585165 0.00000000)
		(2.49720670 0.24035279 0.00000000)
		(2.51396648 0.23262742 0.00000000)
		(2.53072626 0.22274709 0.00000000)
		(2.54748603 0.21080332 0.00000000)
		(2.56424581 0.19690677 0.00000000)
		(2.58100559 0.18118617 0.00000000)
		(2.59776536 0.16378713 0.00000000)
		(2.61452514 0.14487085 0.00000000)
		(2.63128492 0.12461255 0.00000000)
		(2.64804469 0.10319989 0.00000000)
		(2.66480447 0.08083123 0.00000000)
		(2.68156425 0.05771379 0.00000000)
		(2.69832402 0.03406171 0.00000000)
		(2.71508380 0.01009411 0.00000000)
		(2.73184358 -0.01396701 0.00000000)
		(2.74860335 -0.03789874 0.00000000)
		(2.76536313 -0.06147939 0.00000000)
		(2.78212291 -0.08449053 0.00000000)
		(2.79888268 -0.10671898 0.00000000)
		(2.81564246 -0.12795884 0.00000000)
		(2.83240223 -0.14801335 0.00000000)
		(2.84916201 -0.16669672 0.00000000)
		(2.86592179 -0.18383589 0.00000000)
		(2.88268156 -0.19927209 0.00000000)
		(2.89944134 -0.21286231 0.00000000)
		(2.91620112 -0.22448068 0.00000000)
		(2.93296089 -0.23401956 0.00000000)
		(2.95166480 -0.23704021 0.00000000)
		(2.97036872 -0.23974291 0.00000000)
		(2.98907263 -0.24212763 0.00000000)
		(3.00777654 -0.24419440 0.00000000)
		(3.02648045 -0.24594320 0.00000000)
		(3.04518436 -0.24737403 0.00000000)
		(3.06388827 -0.24848691 0.00000000)
		(3.08259218 -0.24928181 0.00000000)
		(3.10129609 -0.24975876 0.00000000)
		(3.12000000 -0.24991774 0.00000000)
		(3.14000000 -0.24991774 0.00000000)
		(3.16000000 -0.24991774 0.00000000)
		(3.18000000 -0.24991774 0.00000000)
		(3.20000000 -0.24991774 0.00000000)
		(3.22000000 -0.24991774 0.00000000)
		(3.24000000 -0.24991774 0.00000000)
		(3.26000000 -0.24991774 0.00000000)
		(3.28000000 -0.24991774 0.00000000)
		(3.30000000 -0.24991774 0.00000000)
		(3.32000000 -0.24991774 0.00000000)
		(3.34000000 -0.24991774 0.00000000)
		(3.36000000 -0.24991774 0.00000000)
		(3.38000000 -0.24991774 0.00000000)
		(3.40000000 -0.24991774 0.00000000)
		(3.42000000 -0.24991774 0.00000000)
		(3.44000000 -0.24991774 0.00000000)
		(3.46000000 -0.24991774 0.00000000)
		(3.48000000 -0.24991774 0.00000000)
		(3.50000000 -0.24991774 0.00000000)
		(3.52000000 -0.24991774 0.00000000)
		(3.54000000 -0.24991774 0.00000000)
		(3.56000000 -0.24991774 0.00000000)
		(3.58000000 -0.24991774 0.00000000)
		(3.60000000 -0.24991774 0.00000000)
		(3.62000000 -0.24991774 0.00000000)
		(3.64000000 -0.24991774 0.00000000)
		(3.66000000 -0.24991774 0.00000000)
		(3.68000000 -0.24991774 0.00000000)
		(3.70000000 -0.24991774 0.00000000)
		(3.72000000 -0.24991774 0.00000000)
		(3.74000000 -0.24991774 0.00000000)
		(3.76000000 -0.24991774 0.00000000)
		(3.78000000 -0.24991774 0.00000000)
		(3.80000000 -0.24991774 0.00000000)
		(3.82000000 -0.24991774 0.00000000)
		(3.84000000 -0.24991774 0.00000000)
		(3.86000000 -0.24991774 0.00000000)
		(3.88000000 -0.24991774 0.00000000)
		(3.90000000 -0.24991774 0.00000000)
		(3.92000000 -0.24991774 0.00000000)
		(3.94000000 -0.24991774 0.00000000)
		(3.96000000 -0.24991774 0.00000000)
		(3.98000000 -0.24991774 0.00000000)
		(4.00000000 -0.24991774 0.00000000)
	)
	polyLine 4 5
	(
		(-1.00000000 0.01735598 0.10000000)
		(-0.98000000 0.01735598 0.10000000)
		(-0.96000000 0.01735598 0.10000000)
		(-0.94000000 0.01735598 0.10000000)
		(-0.92000000 0.01735598 0.10000000)
		(-0.90000000 0.01735598 0.10000000)
		(-0.88000000 0.01735598 0.10000000)
		(-0.86000000 0.01735598 0.10000000)
		(-0.84000000 0.01735598 0.10000000)
		(-0.82000000 0.01735598 0.10000000)
		(-0.80000000 0.01735598 0.10000000)
		(-0.78000000 0.01735598 0.10000000)
		(-0.76000000 0.01735598 0.10000000)
		(-0.74000000 0.01735598 0.10000000)
		(-0.72000000 0.01735598 0.10000000)
		(-0.70000000 0.01735598 0.10000000)
		(-0.68000000 0.01735598 0.10000000)
		(-0.66000000 0.01735598 0.10000000)
		(-0.64000000 0.01735598 0.10000000)
		(-0.62000000 0.01735598 0.10000000)
		(-0.60000000 0.01735598 0.10000000)
		(-0.58000000 0.01735598 0.10000000)
		(-0.56000000 0.01735598 0.10000000)
		(-0.54000000 0.01735598 0.10000000)
		(-0.52000000 0.01735598 0.10000000)
		(-0.50000000 0.01735598 0.10000000)
		(-0.48000000 0.01735598 0.10000000)
		(-0.46000000 0.01735598 0.10000000)
		(-0.44000000 0.01735598 0.10000000)
		(-0.42000000 0.01735598 0.10000000)
		(-0.40000000 0.01735598 0.10000000)
		(-0.38000000 0.01735598 0.10000000)
		(-0.36000000 0.01735598 0.10000000)
		(-0.34000000 0.01735598 0.10000000)
		(-0.32000000 0.01735598 0.10000000)
		(-0.30000000 0.01735598 0.10000000)
		(-0.28000000 0.01735598 0.10000000)
		(-0.26000000 0.01735598 0.10000000)
		(-0.24000000 0.01735598 0.10000000)
		(-0.22000000 0.01735598 0.10000000)
		(-0.20000000 0.01735598 0.10000000)
		(-0.18000000 0.01735598 0.10000000)
		(-0.16000000 0.01735598 0.10000000)
		(-0.14000000 0.01735598 0.10000000)
		(-0.12000000 0.01735598 0.10000000)
		(-0.10000000 0.01735598 0.10000000)
		(-0.08162011 0.01849106 0.10000000)
		(-0.06324022 0.02189631 0.10000000)
		(-0.04486034 0.02757171 0.10000000)
		(-0.02648045 0.03551728 0.10000000)
		(-0.00810056 0.04573301 0.10000000)
		(0.01027933 0.05821891 0.10000000)
		(0.02865922 0.07297496 0.10000000)
		(0.04703911 0.09000118 0.10000000)
		(0.06541899 0.10929757 0.10000000)
		(0.08379888 0.13086411 0.10000000)
		(0.10055866 0.15073617 0.10000000)
		(0.11731844 0.16921188 0.10000000)
		(0.13407821 0.18612009 0.10000000)
		(0.15083799 0.20130416 0.10000000)
		(0.16759777 0.21462344 0.10000000)
		(0.18435754 0.22595454 0.10000000)
		(0.20111732 0.23519250 0.10000000)
		(0.21787709 0.24225175 0.10000000)
		(0.23463687 0.24706688 0.10000000)
		(0.25139665 0.24959330 0.10000000)
		(0.26815642 0.24980759 0.10000000)
		(0.28491620 0.24770778 0.10000000)
		(0.30167598 0.24331331 0.10000000)
		(0.31843575 0.23666490 0.10000000)
		(0.33519553 0.22782413 0.10000000)
		(0.35195531 0.21687290 0.10000000)
		(0.36871508 0.20391265 0.10000000)
		(0.38547486 0.18906345 0.10000000)
		(0.40223464 0.17246285 0.10000000)
		(0.41899441 0.15426464 0.10000000)
		(0.43575419 0.13463738 0.10000000)
		(0.45251397 0.11376290 0.10000000)
		(0.46927374 0.09183457 0.10000000)
		(0.48603352 0.06905553 0.10000000)
		(0.50279330 0.04563679 0.10000000)
		(0.51955307 0.02179529 0.10000000)
		(0.53631285 -0.00224811 0.10000000)
		(0.55307263 -0.02627068 0.10000000)
		(0.56983240 -0.05004990 0.10000000)
		(0.58659218 -0.07336548 0.10000000)
		(0.60335196 -0.09600143 0.10000000)
		(0.62011173 -0.11774806 0.10000000)
		(0.63687151 -0.13840393 0.10000000)
		(0.65363128 -0.15777769 0.10000000)
		(0.67039106 -0.17568987 0.10000000)
		(0.68715084 -0.19197454 0.10000000)
		(0.70391061 -0.20648083 0.10000000)
		(0.72067039 -0.21907439 0.10000000)
		(0.73743017 -0.22963853 0.10000000)
		(0.75418994 -0.23807541 0.10000000)
		(0.77094972 -0.24430686 0.10000000)
		(0.78770950 -0.24827516 0.10000000)
		(0.80446927 -0.24994355 0.10000000)
		(0.82122905 -0.24929658 0.10000000)
		(0.83798883 -0.24634023 0.10000000)
		(0.85474860 -0.24110190 0.10000000)
		(0.87150838 -0.23363011 0.10000000)
		(0.88826816 -0.22399407 0.10000000)
		(0.90502793 -0.21228305 0.10000000)
		(0.92178771 -0.19860554 0.10000000)
		(0.93854749 -0.18308823 0.10000000)
		(0.95530726 -0.16587488 0.10000000)
		(0.97206704 -0.14712494 0.10000000)
		(0.98882682 -0.12701209 0.10000000)
		(1.00558659 -0.10572266 0.10000000)
		(1.02234637 -0.08345387 0.10000000)
		(1.03910615 -0.06041199 0.10000000)
		(1.05586592 -0.03681049 0.10000000)
		(1.07262570 -0.01286799 0.10000000)
		(1.08938547 0.01119372 0.10000000)
		(1.10614525 0.03515173 0.10000000)
		(1.12290503 0.05878411 0.10000000)
		(1.13966480 0.08187194 0.10000000)
		(1.15642458 0.10420134 0.10000000)
		(1.17318436 0.12556547 0.10000000)
		(1.18994413 0.14576642 0.10000000)
		(1.20670391 0.16461705 0.10000000)
		(1.22346369 0.18194275 0.10000000)
		(1.24022346 0.19758301 0.10000000)
		(1.25698324 0.21139294 0.10000000)
		(1.27374302 0.22324463 0.10000000)
		(1.29050279 0.23302828 0.10000000)
		(1.30726257 0.24065326 0.10000000)
		(1.32402235 0.24604893 0.10000000)
		(1.34078212 0.24916532 0.10000000)
		(1.35754190 0.24997355 0.10000000)
		(1.37430168 0.24846614 0.10000000)
		(1.39106145 0.24465705 0.10000000)
		(1.40782123 0.23858156 0.10000000)
		(1.42458101 0.23029596 0.10000000)
		(1.44134078 0.21987701 0.10000000)
		(1.45810056 0.20742121 0.10000000)
		(1.47486034 0.19304395 0.10000000)
		(1.49162011 0.17687842 0.10000000)
		(1.50837989 0.15907437 0.10000000)
		(1.52513966 0.13979672 0.10000000)
		(1.54189944 0.11922406 0.10000000)
		(1.55865922 0.09754696 0.10000000)
		(1.57541899 0.07496623 0.10000000)
		(1.59217877 0.05169105 0.10000000)
		(1.60893855 0.02793702 0.10000000)
		(1.62569832 0.00392420 0.10000000)
		(1.64245810 -0.02012498 0.10000000)
		(1.65921788 -0.04398773 0.10000000)
		(1.67597765 -0.06744299 0.10000000)
		(1.69273743 -0.09027349 0.10000000)
		(1.70949721 -0.11226774 0.10000000)
		(1.72625698 -0.13322199 0.10000000)
		(1.74301676 -0.15294213 0.10000000)
		(1.75977654 -0.17124549 0.10000000)
		(1.77653631 -0.18796250 0.10000000)
		(1.79329609 -0.20293831 0.10000000)
		(1.81005587 -0.21603419 0.10000000)
		(1.82681564 -0.22712883 0.10000000)
		(1.84357542 -0.23611945 0.10000000)
		(1.86033520 -0.24292276 0.10000000)
		(1.87709497 -0.24747574 0.10000000)
		(1.89385475 -0.24973622 0.10000000)
		(1.91061453 -0.24968326 0.10000000)
		(1.92737430 -0.24731734 0.10000000)
		(1.94413408 -0.24266038 0.10000000)
		(1.96089385 -0.23575553 0.10000000)
		(1.97765363 -0.22666674 0.10000000)
		(1.99441341 -0.21547821 0.10000000)
		(2.01117318 -0.20229359 0.10000000)
		(2.02793296 -0.18723501 0.10000000)
		(2.04469274 -0.17044197 0.10000000)
		(2.06145251 -0.15207003 0.10000000)
		(2.07821229 -0.13228939 0.10000000)
		(2.09497207 -0.11128327 0.10000000)
		(2.11173184 -0.08924627 0.10000000)
		(2.12849162 -0.06638254 0.10000000)
		(2.14525140 -0.04290387 0.10000000)
		(2.16201117 -0.01902775 0.10000000)
		(2.17877095 0.00502463 0.10000000)
		(2.19553073 0.02903046 0.10000000)
		(2.21229050 0.05276737 0.10000000)
		(2.22905028 0.07601546 0.10000000)
		(2.24581006 0.09855938 0.10000000)
		(2.26256983 0.12019029 0.10000000)
		(2.27932961 0.14070781 0.10000000)
		(2.29608939 0.15992188 0.10000000)
		(2.31284916 0.17765450 0.10000000)
		(2.32960894 0.19374141 0.10000000)
		(2.34636872 0.20803359 0.10000000)
		(2.36312849 0.22039864 0.10000000)
		(2.37988827 0.23072201 0.10000000)
		(2.39664804 0.23890807 0.10000000)
		(2.41340782 0.24488100 0.10000000)
		(2.43016760 0.24858546 0.10000000)
		(2.44692737 0.24998714 0.10000000)
		(2.46368715 0.24907304 0.10000000)
		(2.48044693 0.24585165 0.10000000)
		(2.49720670 0.24035279 0.10000000)
		(2.51396648 0.23262742 0.10000000)
		(2.53072626 0.22274709 0.10000000)
		(2.54748603 0.21080332 0.10000000)
		(2.56424581 0.19690677 0.10000000)
		(2.58100559 0.18118617 0.10000000)
		(2.59776536 0.16378713 0.10000000)
		(2.61452514 0.14487085 0.10000000)
		(2.63128492 0.12461255 0.10000000)
		(2.64804469 0.10319989 0.10000000)
		(2.66480447 0.08083123 0.10000000)
		(2.68156425 0.05771379 0.10000000)
		(2.69832402 0.03406171 0.10000000)
		(2.71508380 0.01009411 0.10000000)
		(2.73184358 -0.01396701 0.10000000)
		(2.74860335 -0.03789874 0.10000000)
		(2.76536313 -0.06147939 0.10000000)
		(2.78212291 -0.08449053 0.10000000)
		(2.79888268 -0.10671898 0.10000000)
		(2.81564246 -0.12795884 0.10000000)
		(2.83240223 -0.14801335 0.10000000)
		(2.84916201 -0.16669672 0.10000000)
		(2.86592179 -0.18383589 0.10000000)
		(2.88268156 -0.19927209 0.10000000)
		(2.89944134 -0.21286231 0.10000000)
		(2.91620112 -0.22448068 0.10000000)
		(2.93296089 -0.23401956 0.10000000)
		(2.95166480 -0.23704021 0.10000000)
		(2.97036872 -0.23974291 0.10000000)
		(2.98907263 -0.24212763 0.10000000)
		(3.00777654 -0.24419440 0.10000000)
		(3.02648045 -0.24594320 0.10000000)
		(3.04518436 -0.24737403 0.10000000)
		(3.06388827 -0.24848691 0.10000000)
		(3.08259218 -0.24928181 0.10000000)
		(3.10129609 -0.24975876 0.10000000)
		(3.12000000 -0.24991774 0.10000000)
		(3.14000000 -0.24991774 0.10000000)
		(3.16000000 -0.24991774 0.10000000)
		(3.18000000 -0.24991774 0.10000000)
		(3.20000000 -0.24991774 0.10000000)
		(3.22000000 -0.24991774 0.10000000)
		(3.24000000 -0.24991774 0.10000000)
		(3.26000000 -0.24991774 0.10000000)
		(3.28000000 -0.24991774 0.10000000)
		(3.30000000 -0.24991774 0.10000000)
		(3.32000000 -0.24991774 0.10000000)
		(3.34000000 -0.24991774 0.10000000)
		(3.36000000 -0.24991774 0.10000000)
		(3.38000000 -0.24991774 0.10000000)
		(3.40000000 -0.24991774 0.10000000)
		(3.42000000 -0.24991774 0.10000000)
		(3.44000000 -0.24991774 0.10000000)
		(3.46000000 -0.24991774 0.10000000)
		(3.48000000 -0.24991774 0.10000000)
		(3.50000000 -0.24991774 0.10000000)
		(3.52000000 -0.24991774 0.10000000)
		(3.54000000 -0.24991774 0.10000000)
		(3.56000000 -0.24991774 0.10000000)
		(3.58000000 -0.24991774 0.10000000)
		(3.60000000 -0.24991774 0.10000000)
		(3.62000000 -0.24991774 0.10000000)
		(3.64000000 -0.24991774 0.10000000)
		(3.66000000 -0.24991774 0.10000000)
		(3.68000000 -0.24991774 0.10000000)
		(3.70000000 -0.24991774 0.10000000)
		(3.72000000 -0.24991774 0.10000000)
		(3.74000000 -0.24991774 0.10000000)
		(3.76000000 -0.24991774 0.10000000)
		(3.78000000 -0.24991774 0.10000000)
		(3.80000000 -0.24991774 0.10000000)
		(3.82000000 -0.24991774 0.10000000)
		(3.84000000 -0.24991774 0.10000000)
		(3.86000000 -0.24991774 0.10000000)
		(3.88000000 -0.24991774 0.10000000)
		(3.90000000 -0.24991774 0.10000000)
		(3.92000000 -0.24991774 0.10000000)
		(3.94000000 -0.24991774 0.10000000)
		(3.96000000 -0.24991774 0.10000000)
		(3.98000000 -0.24991774 0.10000000)
		(4.00000000 -0.24991774 0.10000000)
	)
	polyLine 3 2
	(
		(-1.00000000 0.51735598 0.00000000)
		(-0.98000000 0.51731930 0.00000000)
		(-0.96000000 0.51728263 0.00000000)
		(-0.94000000 0.51724595 0.00000000)
		(-0.92000000 0.51720927 0.00000000)
		(-0.90000000 0.51717259 0.00000000)
		(-0.88000000 0.51713592 0.00000000)
		(-0.86000000 0.51709924 0.00000000)
		(-0.84000000 0.51706256 0.00000000)
		(-0.82000000 0.51702588 0.00000000)
		(-0.80000000 0.51698921 0.00000000)
		(-0.78000000 0.51695253 0.00000000)
		(-0.76000000 0.51691585 0.00000000)
		(-0.74000000 0.51687917 0.00000000)
		(-0.72000000 0.51684250 0.00000000)
		(-0.70000000 0.51680582 0.00000000)
		(-0.68000000 0.51676914 0.00000000)
		(-0.66000000 0.51673246 0.00000000)
		(-0.64000000 0.51669579 0.00000000)
		(-0.62000000 0.51665911 0.00000000)
		(-0.60000000 0.51662243 0.00000000)
		(-0.58000000 0.51658575 0.00000000)
		(-0.56000000 0.51654908 0.00000000)
		(-0.54000000 0.51651240 0.00000000)
		(-0.52000000 0.51647572 0.00000000)
		(-0.50000000 0.51643904 0.00000000)
		(-0.48000000 0.51640237 0.00000000)
		(-0.46000000 0.51636569 0.00000000)
		(-0.44000000 0.51632901 0.00000000)
		(-0.42000000 0.51629233 0.00000000)
		(-0.40000000 0.51625566 0.00000000)
		(-0.38000000 0.51621898 0.00000000)
		(-0.36000000 0.51618230 0.00000000)
		(-0.34000000 0.51614562 0.00000000)
		(-0.32000000 0.51610895 0.00000000)
		(-0.30000000 0.51607227 0.00000000)
		(-0.28000000 0.51603559 0.00000000)
		(-0.26000000 0.51599891 0.00000000)
		(-0.24000000 0.51596224 0.00000000)
		(-0.22000000 0.51592556 0.00000000)
		(-0.20000000 0.51588888 0.00000000)
		(-0.18000000 0.51585220 0.00000000)
		(-0.16000000 0.51581553 0.00000000)
		(-0.14000000 0.51577885 0.00000000)
		(-0.12000000 0.51574217 0.00000000)
		(-0.10000000 0.51570549 0.00000000)
		(-0.08162011 0.51499859 0.00000000)
		(-0.06324022 0.51670672 0.00000000)
		(-0.04486034 0.52082990 0.00000000)
		(-0.02648045 0.52736811 0.00000000)
		(-0.00810056 0.53632137 0.00000000)
		(0.01027933 0.54768966 0.00000000)
		(0.02865922 0.56147300 0.00000000)
		(0.04703911 0.57767137 0.00000000)
		(0.06541899 0.59628478 0.00000000)
		(0.08379888 0.61731323 0.00000000)
		(0.10055866 0.63512756 0.00000000)
		(0.11731844 0.65169012 0.00000000)
		(0.13407821 0.66684750 0.00000000)
		(0.15083799 0.68045927 0.00000000)
		(0.16759777 0.69239935 0.00000000)
		(0.18435754 0.70255713 0.00000000)
		(0.20111732 0.71083850 0.00000000)
		(0.21787709 0.71716677 0.00000000)
		(0.23463687 0.72148330 0.00000000)
		(0.25139665 0.72374810 0.00000000)
		(0.26815642 0.72394021 0.00000000)
		(0.28491620 0.72205783 0.00000000)
		(0.30167598 0.71811841 0.00000000)
		(0.31843575 0.71215843 0.00000000)
		(0.33519553 0.70423312 0.00000000)
		(0.35195531 0.69441588 0.00000000)
		(0.36871508 0.68279766 0.00000000)
		(0.38547486 0.66948608 0.00000000)
		(0.40223464 0.65460446 0.00000000)
		(0.41899441 0.63829065 0.00000000)
		(0.43575419 0.62069578 0.00000000)
		(0.45251397 0.60198284 0.00000000)
		(0.46927374 0.58232518 0.00000000)
		(0.48603352 0.56190489 0.00000000)
		(0.50279330 0.54091114 0.00000000)
		(0.51955307 0.51953841 0.00000000)
		(0.53631285 0.49798468 0.00000000)
		(0.55307263 0.47644963 0.00000000)
		(0.56983240 0.45513273 0.00000000)
		(0.58659218 0.43423146 0.00000000)
		(0.60335196 0.41393945 0.00000000)
		(0.62011173 0.39444466 0.00000000)
		(0.63687151 0.37592769 0.00000000)
		(0.65363128 0.35856006 0.00000000)
		(0.67039106 0.34250268 0.00000000)
		(0.68715084 0.32790428 0.00000000)
		(0.70391061 0.31490010 0.00000000)
		(0.72067039 0.30361060 0.00000000)
		(0.73743017 0.29414036 0.00000000)
		(0.75418994 0.28657712 0.00000000)
		(0.77094972 0.28099093 0.00000000)
		(0.78770950 0.27743354 0.00000000)
		(0.80446927 0.27593791 0.00000000)
		(0.82122905 0.27651789 0.00000000)
		(0.83798883 0.27916811 0.00000000)
		(0.85474860 0.28386401 0.00000000)
		(0.87150838 0.29056211 0.00000000)
		(0.88826816 0.29920034 0.00000000)
		(0.90502793 0.30969869 0.00000000)
		(0.92178771 0.32195991 0.00000000)
		(0.93854749 0.33587041 0.00000000)
		(0.95530726 0.35130134 0.00000000)
		(0.97206704 0.36810974 0.00000000)
		(0.98882682 0.38613991 0.00000000)
		(1.00558659 0.40522484 0.00000000)
		(1.02234637 0.42518772 0.00000000)
		(1.03910615 0.44584362 0.00000000)
		(1.05586592 0.46700121 0.00000000)
		(1.07262570 0.48846448 0.00000000)
		(1.08938547 0.51003461 0.00000000)
		(1.10614525 0.53151179 0.00000000)
		(1.12290503 0.55269706 0.00000000)
		(1.13966480 0.57339416 0.00000000)
		(1.15642458 0.59341137 0.00000000)
		(1.17318436 0.61256326 0.00000000)
		(1.18994413 0.63067242 0.00000000)
		(1.20670391 0.64757109 0.00000000)
		(1.22346369 0.66310272 0.00000000)
		(1.24022346 0.67712344 0.00000000)
		(1.25698324 0.68950337 0.00000000)
		(1.27374302 0.70012782 0.00000000)
		(1.29050279 0.70889838 0.00000000)
		(1.30726257 0.71573380 0.00000000)
		(1.32402235 0.72057076 0.00000000)
		(1.34078212 0.72336445 0.00000000)
		(1.35754190 0.72408898 0.00000000)
		(1.37430168 0.72273766 0.00000000)
		(1.39106145 0.71932300 0.00000000)
		(1.40782123 0.71387663 0.00000000)
		(1.42458101 0.70644900 0.00000000)
		(1.44134078 0.69710891 0.00000000)
		(1.45810056 0.68594290 0.00000000)
		(1.47486034 0.67305440 0.00000000)
		(1.49162011 0.65856280 0.00000000)
		(1.50837989 0.64260234 0.00000000)
		(1.52513966 0.62532088 0.00000000)
		(1.54189944 0.60687850 0.00000000)
		(1.55865922 0.58744605 0.00000000)
		(1.57541899 0.56720354 0.00000000)
		(1.59217877 0.54633848 0.00000000)
		(1.60893855 0.52504416 0.00000000)
		(1.62569832 0.50351785 0.00000000)
		(1.64245810 0.48195895 0.00000000)
		(1.65921788 0.46056717 0.00000000)
		(1.67597765 0.43954068 0.00000000)
		(1.69273743 0.41907426 0.00000000)
		(1.70949721 0.39935750 0.00000000)
		(1.72625698 0.38057304 0.00000000)
		(1.74301676 0.36289491 0.00000000)
		(1.75977654 0.34648685 0.00000000)
		(1.77653631 0.33150087 0.00000000)
		(1.79329609 0.31807579 0.00000000)
		(1.81005587 0.30633598 0.00000000)
		(1.82681564 0.29639018 0.00000000)
		(1.84357542 0.28833054 0.00000000)
		(1.86033520 0.28223170 0.00000000)
		(1.87709497 0.27815018 0.00000000)
		(1.89385475 0.27612377 0.00000000)
		(1.91061453 0.27617125 0.00000000)
		(1.92737430 0.27829218 0.00000000)
		(1.94413408 0.28246691 0.00000000)
		(1.96089385 0.28865677 0.00000000)
		(1.97765363 0.29680442 0.00000000)
		(1.99441341 0.30683439 0.00000000)
		(2.01117318 0.31865375 0.00000000)
		(2.02793296 0.33215303 0.00000000)
		(2.04469274 0.34720716 0.00000000)
		(2.06145251 0.36367670 0.00000000)
		(2.07821229 0.38140908 0.00000000)
		(2.09497207 0.40024003 0.00000000)
		(2.11173184 0.41999511 0.00000000)
		(2.12849162 0.44049132 0.00000000)
		(2.14525140 0.46153880 0.00000000)
		(2.16201117 0.48294256 0.00000000)
		(2.17877095 0.50450433 0.00000000)
		(2.19553073 0.52602438 0.00000000)
		(2.21229050 0.54730335 0.00000000)
		(2.22905028 0.56814412 0.00000000)
		(2.24581006 0.58835363 0.00000000)
		(2.26256983 0.60774468 0.00000000)
		(2.27932961 0.62613763 0.00000000)
		(2.29608939 0.64336209 0.00000000)
		(2.31284916 0.65925852 0.00000000)
		(2.32960894 0.67367964 0.00000000)
		(2.34636872 0.68649187 0.00000000)
		(2.36312849 0.69757653 0.00000000)
		(2.37988827 0.70683092 0.00000000)
		(2.39664804 0.71416933 0.00000000)
		(2.41340782 0.71952377 0.00000000)
		(2.43016760 0.72284463 0.00000000)
		(2.44692737 0.72410116 0.00000000)
		(2.46368715 0.72328172 0.00000000)
		(2.48044693 0.72039390 0.00000000)
		(2.49720670 0.71546445 0.00000000)
		(2.51396648 0.70853903 0.00000000)
		(2.53072626 0.69968180 0.00000000)