/*--------------------------------*- C++ -*----------------------------------*\\
/*--------------------------------*- C++ -*----------------------------------*\\
| =========                 |                                                 |
| \\\\      /  F ield         | OpenFOAM: The Open Source CFD Toolbox           |
|  \\\\    /   O peration     | Version:  v2012                                 |
|   \\\\  /    A nd           | Website:  www.openfoam.com                      |
|    \\\\/     M anipulation  |                                                 |
\\*---------------------------------------------------------------------------*/
FoamFile
{
    version     2.0;
    format      ascii;
    class       dictionary;
    object      blockMeshDict;
}
// * * * * * * * * * * * * * * * * * * * * * * * * * * * * * * * * * * * * * //

scale   0.01;

xmin -1;
xmax 5;
ymin 0;
ymax 0.5;
zmin 0;
zmax 0.1;

vertices
(
    (-1.00000000 -0.24613547 0.00000000)
    (4.00000000 -0.08741808 0.00000000)
    (4.00000000 0.41258192 0.00000000)
    (-1.00000000 0.25386453 0.00000000)
    (-1.00000000 -0.24613547 0.10000000)
    (4.00000000 -0.08741808 0.10000000)
    (4.00000000 0.41258192 0.10000000)
    (-1.00000000 0.25386453 0.10000000)
);

blocks
(
    hex (0 1 2 3 4 5 6 7) (200 20 1) simpleGrading (1 1 1)
);

edges
(
	polyLine 0 1
	(
		(-1.00000000 -0.24613547 0.00000000)
		(-0.98000000 -0.24613547 0.00000000)
		(-0.96000000 -0.24613547 0.00000000)
		(-0.94000000 -0.24613547 0.00000000)
		(-0.92000000 -0.24613547 0.00000000)
		(-0.90000000 -0.24613547 0.00000000)
		(-0.88000000 -0.24613547 0.00000000)
		(-0.86000000 -0.24613547 0.00000000)
		(-0.84000000 -0.24613547 0.00000000)
		(-0.82000000 -0.24613547 0.00000000)
		(-0.80000000 -0.24613547 0.00000000)
		(-0.78000000 -0.24613547 0.00000000)
		(-0.76000000 -0.24613547 0.00000000)
		(-0.74000000 -0.24613547 0.00000000)
		(-0.72000000 -0.24613547 0.00000000)
		(-0.70000000 -0.24613547 0.00000000)
		(-0.68000000 -0.24613547 0.00000000)
		(-0.66000000 -0.24613547 0.00000000)
		(-0.64000000 -0.24613547 0.00000000)
		(-0.62000000 -0.24613547 0.00000000)
		(-0.60000000 -0.24613547 0.00000000)
		(-0.58000000 -0.24613547 0.00000000)
		(-0.56000000 -0.24613547 0.00000000)
		(-0.54000000 -0.24613547 0.00000000)
		(-0.52000000 -0.24613547 0.00000000)
		(-0.50000000 -0.24613547 0.00000000)
		(-0.48000000 -0.24613547 0.00000000)
		(-0.46000000 -0.24613547 0.00000000)
		(-0.44000000 -0.24613547 0.00000000)
		(-0.42000000 -0.24613547 0.00000000)
		(-0.40000000 -0.24613547 0.00000000)
		(-0.38000000 -0.24613547 0.00000000)
		(-0.36000000 -0.24613547 0.00000000)
		(-0.34000000 -0.24613547 0.00000000)
		(-0.32000000 -0.24613547 0.00000000)
		(-0.30000000 -0.24613547 0.00000000)
		(-0.28000000 -0.24613547 0.00000000)
		(-0.26000000 -0.24613547 0.00000000)
		(-0.24000000 -0.24613547 0.00000000)
		(-0.22000000 -0.24613547 0.00000000)
		(-0.20000000 -0.24613547 0.00000000)
		(-0.18000000 -0.24613547 0.00000000)
		(-0.16000000 -0.24613547 0.00000000)
		(-0.14000000 -0.24613547 0.00000000)
		(-0.12000000 -0.24613547 0.00000000)
		(-0.10000000 -0.24613547 0.00000000)
		(-0.08162011 -0.24588199 0.00000000)
		(-0.06324022 -0.24512157 0.00000000)
		(-0.04486034 -0.24385419 0.00000000)
		(-0.02648045 -0.24207987 0.00000000)
		(-0.00810056 -0.23979860 0.00000000)
		(0.01027933 -0.23701037 0.00000000)
		(0.02865922 -0.23371520 0.00000000)
		(0.04703911 -0.22991307 0.00000000)
		(0.06541899 -0.22560400 0.00000000)
		(0.08379888 -0.22078797 0.00000000)
		(0.10055866 -0.21304004 0.00000000)
		(0.11731844 -0.20446178 0.00000000)
		(0.13407821 -0.19508665 0.00000000)
		(0.15083799 -0.18495116 0.00000000)
		(0.16759777 -0.17409484 0.00000000)
		(0.18435754 -0.16255998 0.00000000)
		(0.20111732 -0.15039156 0.00000000)
		(0.21787709 -0.13763698 0.00000000)
		(0.23463687 -0.12434597 0.00000000)
		(0.25139665 -0.11057033 0.00000000)
		(0.26815642 -0.09636374 0.00000000)
		(0.28491620 -0.08178157 0.00000000)
		(0.30167598 -0.06688067 0.00000000)
		(0.31843575 -0.05171910 0.00000000)
		(0.33519553 -0.03635595 0.00000000)
		(0.35195531 -0.02085111 0.00000000)
		(0.36871508 -0.00526500 0.00000000)
		(0.38547486 0.01034163 0.00000000)
		(0.40223464 0.02590795 0.00000000)
		(0.41899441 0.04137330 0.00000000)
		(0.43575419 0.05667739 0.00000000)
		(0.45251397 0.07176059 0.00000000)
		(0.46927374 0.08656410 0.00000000)
		(0.48603352 0.10103023 0.00000000)
		(0.50279330 0.11510260 0.00000000)
		(0.51955307 0.12872636 0.00000000)
		(0.53631285 0.14184841 0.00000000)
		(0.55307263 0.15441761 0.00000000)
		(0.56983240 0.16638498 0.00000000)
		(0.58659218 0.17770386 0.00000000)
		(0.60335196 0.18833015 0.00000000)
		(0.62011173 0.19822242 0.00000000)
		(0.63687151 0.20734213 0.00000000)
		(0.65363128 0.21565373 0.00000000)
		(0.67039106 0.22312483 0.00000000)
		(0.68715084 0.22972630 0.00000000)
		(0.70391061 0.23543242 0.00000000)
		(0.72067039 0.24022095 0.00000000)
		(0.73743017 0.24407322 0.00000000)
		(0.75418994 0.24697423 0.00000000)
		(0.77094972 0.24891266 0.00000000)
		(0.78770950 0.24988096 0.00000000)
		(0.80446927 0.24987536 0.00000000)
		(0.82122905 0.24889587 0.00000000)
		(0.83798883 0.24694632 0.00000000)
		(0.85474860 0.24403431 0.00000000)
		(0.87150838 0.24017117 0.00000000)
		(0.88826816 0.23537198 0.00000000)
		(0.90502793 0.22965543 0.00000000)
		(0.92178771 0.22304380 0.00000000)
		(0.93854749 0.21556287 0.00000000)
		(0.95530726 0.20724179 0.00000000)
		(0.97206704 0.19811299 0.00000000)
		(0.98882682 0.18821205 0.00000000)
		(1.00558659 0.17757756 0.00000000)
		(1.02234637 0.16625096 0.00000000)
		(1.03910615 0.15427641 0.00000000)
		(1.05586592 0.14170057 0.00000000)
		(1.07262570 0.12857245 0.00000000)
		(1.08938547 0.11494323 0.00000000)
		(1.10614525 0.10086602 0.00000000)
		(1.12290503 0.08639568 0.00000000)
		(1.13966480 0.07158862 0.00000000)
		(1.15642458 0.05650255 0.00000000)
		(1.17318436 0.04119626 0.00000000)
		(1.18994413 0.02572941 0.00000000)
		(1.20670391 0.01016228 0.00000000)
		(1.22346369 -0.00544446 0.00000000)
		(1.24022346 -0.02102998 0.00000000)
		(1.25698324 -0.03653354 0.00000000)
		(1.27374302 -0.05189470 0.00000000)
		(1.29050279 -0.06705361 0.00000000)
		(1.30726257 -0.08195118 0.00000000)
		(1.32402235 -0.09652935 0.00000000)
		(1.34078212 -0.11073129 0.00000000)
		(1.35754190 -0.12450167 0.00000000)
		(1.37430168 -0.13778680 0.00000000)
		(1.39106145 -0.15053491 0.00000000)
		(1.40782123 -0.16269632 0.00000000)
		(1.42458101 -0.17422362 0.00000000)
		(1.44134078 -0.18507189 0.00000000)
		(1.45810056 -0.19519885 0.00000000)
		(1.47486034 -0.20456502 0.00000000)
		(1.49162011 -0.21313391 0.00000000)
		(1.50837989 -0.22087212 0.00000000)
		(1.52513966 -0.22774948 0.00000000)
		(1.54189944 -0.23373920 0.00000000)
		(1.55865922 -0.23881792 0.00000000)
		(1.57541899 -0.24296586 0.00000000)
		(1.59217877 -0.24616685 0.00000000)
		(1.60893855 -0.24840840 0.00000000)
		(1.62569832 -0.24968180 0.00000000)
		(1.64245810 -0.24998206 0.00000000)
		(1.65921788 -0.24930803 0.00000000)
		(1.67597765 -0.24766232 0.00000000)
		(1.69273743 -0.24505136 0.00000000)
		(1.70949721 -0.24148532 0.00000000)
		(1.72625698 -0.23697809 0.00000000)
		(1.74301676 -0.23154725 0.00000000)
		(1.75977654 -0.22521396 0.00000000)
		(1.77653631 -0.21800291 0.00000000)
		(1.79329609 -0.20994220 0.00000000)
		(1.81005587 -0.20106324 0.00000000)
		(1.82681564 -0.19140064 0.00000000)
		(1.84357542 -0.18099207 0.00000000)
		(1.86033520 -0.16987808 0.00000000)
		(1.87709497 -0.15810200 0.00000000)
		(1.89385475 -0.14570972 0.00000000)
		(1.91061453 -0.13274954 0.00000000)
		(1.92737430 -0.11927198 0.00000000)
		(1.94413408 -0.10532955 0.00000000)
		(1.96089385 -0.09097660 0.00000000)
		(1.97765363 -0.07626908 0.00000000)
		(1.99441341 -0.06126430 0.00000000)
		(2.01117318 -0.04602075 0.00000000)
		(2.02793296 -0.03059782 0.00000000)
		(2.04469274 -0.01505565 0.00000000)
		(2.06145251 0.00054520 0.00000000)
		(2.07821229 0.01614393 0.00000000)
		(2.09497207 0.03167974 0.00000000)
		(2.11173184 0.04709208 0.00000000)
		(2.12849162 0.06232087 0.00000000)
		(2.14525140 0.07730678 0.00000000)
		(2.16201117 0.09199138 0.00000000)
		(2.17877095 0.10631745 0.00000000)
		(2.19553073 0.12022915 0.00000000)
		(2.21229050 0.13367226 0.00000000)
		(2.22905028 0.14659438 0.00000000)
		(2.24581006 0.15894516 0.00000000)
		(2.26256983 0.17067646 0.00000000)
		(2.27932961 0.18174254 0.00000000)
		(2.29608939 0.19210029 0.00000000)
		(2.31284916 0.20170934 0.00000000)
		(2.32960894 0.21053223 0.00000000)
		(2.34636872 0.21853457 0.00000000)
		(2.36312849 0.22568519 0.00000000)
		(2.37988827 0.23195620 0.00000000)
		(2.39664804 0.23732317 0.00000000)
		(2.41340782 0.24176518 0.00000000)
		(2.43016760 0.24526491 0.00000000)
		(2.44692737 0.24780873 0.00000000)
		(2.46368715 0.24938673 0.00000000)
		(2.48044693 0.24999274 0.00000000)
		(2.49720670 0.24962442 0.00000000)
		(2.51396648 0.24828320 0.00000000)
		(2.53072626 0.24597429 0.00000000)
		(2.54748603 0.24270671 0.00000000)
		(2.56424581 0.23849319 0.00000000)
		(2.58100559 0.23335014 0.00000000)
		(2.59776536 0.22729762 0.00000000)
		(2.61452514 0.22035921 0.00000000)
		(2.63128492 0.21256196 0.00000000)
		(2.64804469 0.20393626 0.00000000)
		(2.66480447 0.19451572 0.00000000)
		(2.68156425 0.18433706 0.00000000)
		(2.69832402 0.17343995 0.00000000)
		(2.71508380 0.16186687 0.00000000)
		(2.73184358 0.14966291 0.00000000)
		(2.74860335 0.13687565 0.00000000)
		(2.76536313 0.12355491 0.00000000)
		(2.78212291 0.10975263 0.00000000)
		(2.79888268 0.09552258 0.00000000)
		(2.81564246 0.08092025 0.00000000)
		(2.83240223 0.06600252 0.00000000)
		(2.84916201 0.05082755 0.00000000)
		(2.86592179 0.03545449 0.00000000)
		(2.88268156 0.01994324 0.00000000)
		(2.89944134 0.00435426 0.00000000)
		(2.91620112 -0.01125168 0.00000000)
		(2.93296089 -0.02681378 0.00000000)
		(2.95166480 -0.03832860 0.00000000)
		(2.97036872 -0.04863133 0.00000000)
		(2.98907263 -0.05772197 0.00000000)
		(3.00777654 -0.06560053 0.00000000)
		(3.02648045 -0.07226701 0.00000000)
		(3.04518436 -0.07772139 0.00000000)
		(3.06388827 -0.08196369 0.00000000)
		(3.08259218 -0.08499391 0.00000000)
		(3.10129609 -0.08681204 0.00000000)
		(3.12000000 -0.08741808 0.00000000)
		(3.14000000 -0.08741808 0.00000000)
		(3.16000000 -0.08741808 0.00000000)
		(3.18000000 -0.08741808 0.00000000)
		(3.20000000 -0.08741808 0.00000000)
		(3.22000000 -0.08741808 0.00000000)
		(3.24000000 -0.08741808 0.00000000)
		(3.26000000 -0.08741808 0.00000000)
		(3.28000000 -0.08741808 0.00000000)
		(3.30000000 -0.08741808 0.00000000)
		(3.32000000 -0.08741808 0.00000000)
		(3.34000000 -0.08741808 0.00000000)
		(3.36000000 -0.08741808 0.00000000)
		(3.38000000 -0.08741808 0.00000000)
		(3.40000000 -0.08741808 0.00000000)
		(3.42000000 -0.08741808 0.00000000)
		(3.44000000 -0.08741808 0.00000000)
		(3.46000000 -0.08741808 0.00000000)
		(3.48000000 -0.08741808 0.00000000)
		(3.50000000 -0.08741808 0.00000000)
		(3.52000000 -0.08741808 0.00000000)
		(3.54000000 -0.08741808 0.00000000)
		(3.56000000 -0.08741808 0.00000000)
		(3.58000000 -0.08741808 0.00000000)
		(3.60000000 -0.08741808 0.00000000)
		(3.62000000 -0.08741808 0.00000000)
		(3.64000000 -0.08741808 0.00000000)
		(3.66000000 -0.08741808 0.00000000)
		(3.68000000 -0.08741808 0.00000000)
		(3.70000000 -0.08741808 0.00000000)
		(3.72000000 -0.08741808 0.00000000)
		(3.74000000 -0.08741808 0.00000000)
		(3.76000000 -0.08741808 0.00000000)
		(3.78000000 -0.08741808 0.00000000)
		(3.80000000 -0.08741808 0.00000000)
		(3.82000000 -0.08741808 0.00000000)
		(3.84000000 -0.08741808 0.00000000)
		(3.86000000 -0.08741808 0.00000000)
		(3.88000000 -0.08741808 0.00000000)
		(3.90000000 -0.08741808 0.00000000)
		(3.92000000 -0.08741808 0.00000000)
		(3.94000000 -0.08741808 0.00000000)
		(3.96000000 -0.08741808 0.00000000)
		(3.98000000 -0.08741808 0.00000000)
		(4.00000000 -0.08741808 0.00000000)
	)
	polyLine 4 5
	(
		(-1.00000000 -0.24613547 0.10000000)
		(-0.98000000 -0.24613547 0.10000000)
		(-0.96000000 -0.24613547 0.10000000)
		(-0.94000000 -0.24613547 0.10000000)
		(-0.92000000 -0.24613547 0.10000000)
		(-0.90000000 -0.24613547 0.10000000)
		(-0.88000000 -0.24613547 0.10000000)
		(-0.86000000 -0.24613547 0.10000000)
		(-0.84000000 -0.24613547 0.10000000)
		(-0.82000000 -0.24613547 0.10000000)
		(-0.80000000 -0.24613547 0.10000000)
		(-0.78000000 -0.24613547 0.10000000)
		(-0.76000000 -0.24613547 0.10000000)
		(-0.74000000 -0.24613547 0.10000000)
		(-0.72000000 -0.24613547 0.10000000)
		(-0.70000000 -0.24613547 0.10000000)
		(-0.68000000 -0.24613547 0.10000000)
		(-0.66000000 -0.24613547 0.10000000)
		(-0.64000000 -0.24613547 0.10000000)
		(-0.62000000 -0.24613547 0.10000000)
		(-0.60000000 -0.24613547 0.10000000)
		(-0.58000000 -0.24613547 0.10000000)
		(-0.56000000 -0.24613547 0.10000000)
		(-0.54000000 -0.24613547 0.10000000)
		(-0.52000000 -0.24613547 0.10000000)
		(-0.50000000 -0.24613547 0.10000000)
		(-0.48000000 -0.24613547 0.10000000)
		(-0.46000000 -0.24613547 0.10000000)
		(-0.44000000 -0.24613547 0.10000000)
		(-0.42000000 -0.24613547 0.10000000)
		(-0.40000000 -0.24613547 0.10000000)
		(-0.38000000 -0.24613547 0.10000000)
		(-0.36000000 -0.24613547 0.10000000)
		(-0.34000000 -0.24613547 0.10000000)
		(-0.32000000 -0.24613547 0.10000000)
		(-0.30000000 -0.24613547 0.10000000)
		(-0.28000000 -0.24613547 0.10000000)
		(-0.26000000 -0.24613547 0.10000000)
		(-0.24000000 -0.24613547 0.10000000)
		(-0.22000000 -0.24613547 0.10000000)
		(-0.20000000 -0.24613547 0.10000000)
		(-0.18000000 -0.24613547 0.10000000)
		(-0.16000000 -0.24613547 0.10000000)
		(-0.14000000 -0.24613547 0.10000000)
		(-0.12000000 -0.24613547 0.10000000)
		(-0.10000000 -0.24613547 0.10000000)
		(-0.08162011 -0.24588199 0.10000000)
		(-0.06324022 -0.24512157 0.10000000)
		(-0.04486034 -0.24385419 0.10000000)
		(-0.02648045 -0.24207987 0.10000000)
		(-0.00810056 -0.23979860 0.10000000)
		(0.01027933 -0.23701037 0.10000000)
		(0.02865922 -0.23371520 0.10000000)
		(0.04703911 -0.22991307 0.10000000)
		(0.06541899 -0.22560400 0.10000000)
		(0.08379888 -0.22078797 0.10000000)
		(0.10055866 -0.21304004 0.10000000)
		(0.11731844 -0.20446178 0.10000000)
		(0.13407821 -0.19508665 0.10000000)
		(0.15083799 -0.18495116 0.10000000)
		(0.16759777 -0.17409484 0.10000000)
		(0.18435754 -0.16255998 0.10000000)
		(0.20111732 -0.15039156 0.10000000)
		(0.21787709 -0.13763698 0.10000000)
		(0.23463687 -0.12434597 0.10000000)
		(0.25139665 -0.11057033 0.10000000)
		(0.26815642 -0.09636374 0.10000000)
		(0.28491620 -0.08178157 0.10000000)
		(0.30167598 -0.06688067 0.10000000)
		(0.31843575 -0.05171910 0.10000000)
		(0.33519553 -0.03635595 0.10000000)
		(0.35195531 -0.02085111 0.10000000)
		(0.36871508 -0.00526500 0.10000000)
		(0.38547486 0.01034163 0.10000000)
		(0.40223464 0.02590795 0.10000000)
		(0.41899441 0.04137330 0.10000000)
		(0.43575419 0.05667739 0.10000000)
		(0.45251397 0.07176059 0.10000000)
		(0.46927374 0.08656410 0.10000000)
		(0.48603352 0.10103023 0.10000000)
		(0.50279330 0.11510260 0.10000000)
		(0.51955307 0.12872636 0.10000000)
		(0.53631285 0.14184841 0.10000000)
		(0.55307263 0.15441761 0.10000000)
		(0.56983240 0.16638498 0.10000000)
		(0.58659218 0.17770386 0.10000000)
		(0.60335196 0.18833015 0.10000000)
		(0.62011173 0.19822242 0.10000000)
		(0.63687151 0.20734213 0.10000000)
		(0.65363128 0.21565373 0.10000000)
		(0.67039106 0.22312483 0.10000000)
		(0.68715084 0.22972630 0.10000000)
		(0.70391061 0.23543242 0.10000000)
		(0.72067039 0.24022095 0.10000000)
		(0.73743017 0.24407322 0.10000000)
		(0.75418994 0.24697423 0.10000000)
		(0.77094972 0.24891266 0.10000000)
		(0.78770950 0.24988096 0.10000000)
		(0.80446927 0.24987536 0.10000000)
		(0.82122905 0.24889587 0.10000000)
		(0.83798883 0.24694632 0.10000000)
		(0.85474860 0.24403431 0.10000000)
		(0.87150838 0.24017117 0.10000000)
		(0.88826816 0.23537198 0.10000000)
		(0.90502793 0.22965543 0.10000000)
		(0.92178771 0.22304380 0.10000000)
		(0.93854749 0.21556287 0.10000000)
		(0.95530726 0.20724179 0.10000000)
		(0.97206704 0.19811299 0.10000000)
		(0.98882682 0.18821205 0.10000000)
		(1.00558659 0.17757756 0.10000000)
		(1.02234637 0.16625096 0.10000000)
		(1.03910615 0.15427641 0.10000000)
		(1.05586592 0.14170057 0.10000000)
		(1.07262570 0.12857245 0.10000000)
		(1.08938547 0.11494323 0.10000000)
		(1.10614525 0.10086602 0.10000000)
		(1.12290503 0.08639568 0.10000000)
		(1.13966480 0.07158862 0.10000000)
		(1.15642458 0.05650255 0.10000000)
		(1.17318436 0.04119626 0.10000000)
		(1.18994413 0.02572941 0.10000000)
		(1.20670391 0.01016228 0.10000000)
		(1.22346369 -0.00544446 0.10000000)
		(1.24022346 -0.02102998 0.10000000)
		(1.25698324 -0.03653354 0.10000000)
		(1.27374302 -0.05189470 0.10000000)
		(1.29050279 -0.06705361 0.10000000)
		(1.30726257 -0.08195118 0.10000000)
		(1.32402235 -0.09652935 0.10000000)
		(1.34078212 -0.11073129 0.10000000)
		(1.35754190 -0.12450167 0.10000000)
		(1.37430168 -0.13778680 0.10000000)
		(1.39106145 -0.15053491 0.10000000)
		(1.40782123 -0.16269632 0.10000000)
		(1.42458101 -0.17422362 0.10000000)
		(1.44134078 -0.18507189 0.10000000)
		(1.45810056 -0.19519885 0.10000000)
		(1.47486034 -0.20456502 0.10000000)
		(1.49162011 -0.21313391 0.10000000)
		(1.50837989 -0.22087212 0.10000000)
		(1.52513966 -0.22774948 0.10000000)
		(1.54189944 -0.23373920 0.10000000)
		(1.55865922 -0.23881792 0.10000000)
		(1.57541899 -0.24296586 0.10000000)
		(1.59217877 -0.24616685 0.10000000)
		(1.60893855 -0.24840840 0.10000000)
		(1.62569832 -0.24968180 0.10000000)
		(1.64245810 -0.24998206 0.10000000)
		(1.65921788 -0.24930803 0.10000000)
		(1.67597765 -0.24766232 0.10000000)
		(1.69273743 -0.24505136 0.10000000)
		(1.70949721 -0.24148532 0.10000000)
		(1.72625698 -0.23697809 0.10000000)
		(1.74301676 -0.23154725 0.10000000)
		(1.75977654 -0.22521396 0.10000000)
		(1.77653631 -0.21800291 0.10000000)
		(1.79329609 -0.20994220 0.10000000)
		(1.81005587 -0.20106324 0.10000000)
		(1.82681564 -0.19140064 0.10000000)
		(1.84357542 -0.18099207 0.10000000)
		(1.86033520 -0.16987808 0.10000000)
		(1.87709497 -0.15810200 0.10000000)
		(1.89385475 -0.14570972 0.10000000)
		(1.91061453 -0.13274954 0.10000000)
		(1.92737430 -0.11927198 0.10000000)
		(1.94413408 -0.10532955 0.10000000)
		(1.96089385 -0.09097660 0.10000000)
		(1.97765363 -0.07626908 0.10000000)
		(1.99441341 -0.06126430 0.10000000)
		(2.01117318 -0.04602075 0.10000000)
		(2.02793296 -0.03059782 0.10000000)
		(2.04469274 -0.01505565 0.10000000)
		(2.06145251 0.00054520 0.10000000)
		(2.07821229 0.01614393 0.10000000)
		(2.09497207 0.03167974 0.10000000)
		(2.11173184 0.04709208 0.10000000)
		(2.12849162 0.06232087 0.10000000)
		(2.14525140 0.07730678 0.10000000)
		(2.16201117 0.09199138 0.10000000)
		(2.17877095 0.10631745 0.10000000)
		(2.19553073 0.12022915 0.10000000)
		(2.21229050 0.13367226 0.10000000)
		(2.22905028 0.14659438 0.10000000)
		(2.24581006 0.15894516 0.10000000)
		(2.26256983 0.17067646 0.10000000)
		(2.27932961 0.18174254 0.10000000)
		(2.29608939 0.19210029 0.10000000)
		(2.31284916 0.20170934 0.10000000)
		(2.32960894 0.21053223 0.10000000)
		(2.34636872 0.21853457 0.10000000)
		(2.36312849 0.22568519 0.10000000)
		(2.37988827 0.23195620 0.10000000)
		(2.39664804 0.23732317 0.10000000)
		(2.41340782 0.24176518 0.10000000)
		(2.43016760 0.24526491 0.10000000)
		(2.44692737 0.24780873 0.10000000)
		(2.46368715 0.24938673 0.10000000)
		(2.48044693 0.24999274 0.10000000)
		(2.49720670 0.24962442 0.10000000)
		(2.51396648 0.24828320 0.10000000)
		(2.53072626 0.24597429 0.10000000)
		(2.54748603 0.24270671 0.10000000)
		(2.56424581 0.23849319 0.10000000)
		(2.58100559 0.23335014 0.10000000)
		(2.59776536 0.22729762 0.10000000)
		(2.61452514 0.22035921 0.10000000)
		(2.63128492 0.21256196 0.10000000)
		(2.64804469 0.20393626 0.10000000)
		(2.66480447 0.19451572 0.10000000)
		(2.68156425 0.18433706 0.10000000)
		(2.69832402 0.17343995 0.10000000)
		(2.71508380 0.16186687 0.10000000)
		(2.73184358 0.14966291 0.10000000)
		(2.74860335 0.13687565 0.10000000)
		(2.76536313 0.12355491 0.10000000)
		(2.78212291 0.10975263 0.10000000)
		(2.79888268 0.09552258 0.10000000)
		(2.81564246 0.08092025 0.10000000)
		(2.83240223 0.06600252 0.10000000)
		(2.84916201 0.05082755 0.10000000)
		(2.86592179 0.03545449 0.10000000)
		(2.88268156 0.01994324 0.10000000)
		(2.89944134 0.00435426 0.10000000)
		(2.91620112 -0.01125168 0.10000000)
		(2.93296089 -0.02681378 0.10000000)
		(2.95166480 -0.03832860 0.10000000)
		(2.97036872 -0.04863133 0.10000000)
		(2.98907263 -0.05772197 0.10000000)
		(3.00777654 -0.06560053 0.10000000)
		(3.02648045 -0.07226701 0.10000000)
		(3.04518436 -0.07772139 0.10000000)
		(3.06388827 -0.08196369 0.10000000)
		(3.08259218 -0.08499391 0.10000000)
		(3.10129609 -0.08681204 0.10000000)
		(3.12000000 -0.08741808 0.10000000)
		(3.14000000 -0.08741808 0.10000000)
		(3.16000000 -0.08741808 0.10000000)
		(3.18000000 -0.08741808 0.10000000)
		(3.20000000 -0.08741808 0.10000000)
		(3.22000000 -0.08741808 0.10000000)
		(3.24000000 -0.08741808 0.10000000)
		(3.26000000 -0.08741808 0.10000000)
		(3.28000000 -0.08741808 0.10000000)
		(3.30000000 -0.08741808 0.10000000)
		(3.32000000 -0.08741808 0.10000000)
		(3.34000000 -0.08741808 0.10000000)
		(3.36000000 -0.08741808 0.10000000)
		(3.38000000 -0.08741808 0.10000000)
		(3.40000000 -0.08741808 0.10000000)
		(3.42000000 -0.08741808 0.10000000)
		(3.44000000 -0.08741808 0.10000000)
		(3.46000000 -0.08741808 0.10000000)
		(3.48000000 -0.08741808 0.10000000)
		(3.50000000 -0.08741808 0.10000000)
		(3.52000000 -0.08741808 0.10000000)
		(3.54000000 -0.08741808 0.10000000)
		(3.56000000 -0.08741808 0.10000000)
		(3.58000000 -0.08741808 0.10000000)
		(3.60000000 -0.08741808 0.10000000)
		(3.62000000 -0.08741808 0.10000000)
		(3.64000000 -0.08741808 0.10000000)
		(3.66000000 -0.08741808 0.10000000)
		(3.68000000 -0.08741808 0.10000000)
		(3.70000000 -0.08741808 0.10000000)
		(3.72000000 -0.08741808 0.10000000)
		(3.74000000 -0.08741808 0.10000000)
		(3.76000000 -0.08741808 0.10000000)
		(3.78000000 -0.08741808 0.10000000)
		(3.80000000 -0.08741808 0.10000000)
		(3.82000000 -0.08741808 0.10000000)
		(3.84000000 -0.08741808 0.10000000)
		(3.86000000 -0.08741808 0.10000000)
		(3.88000000 -0.08741808 0.10000000)
		(3.90000000 -0.08741808 0.10000000)
		(3.92000000 -0.08741808 0.10000000)
		(3.94000000 -0.08741808 0.10000000)
		(3.96000000 -0.08741808 0.10000000)
		(3.98000000 -0.08741808 0.10000000)
		(4.00000000 -0.08741808 0.10000000)
	)
	polyLine 3 2
	(
		(-1.00000000 0.25386453 0.00000000)
		(-0.98000000 0.25658961 0.00000000)
		(-0.96000000 0.25931470 0.00000000)
		(-0.94000000 0.26203978 0.00000000)
		(-0.92000000 0.26476486 0.00000000)
		(-0.90000000 0.26748994 0.00000000)
		(-0.88000000 0.27021502 0.00000000)
		(-0.86000000 0.27294011 0.00000000)
		(-0.84000000 0.27566519 0.00000000)
		(-0.82000000 0.27839027 0.00000000)
		(-0.80000000 0.28111535 0.00000000)
		(-0.78000000 0.28384044 0.00000000)
		(-0.76000000 0.28656552 0.00000000)
		(-0.74000000 0.28929060 0.00000000)
		(-0.72000000 0.29201568 0.00000000)
		(-0.70000000 0.29474076 0.00000000)
		(-0.68000000 0.29746585 0.00000000)
		(-0.66000000 0.30019093 0.00000000)
		(-0.64000000 0.30291601 0.00000000)
		(-0.62000000 0.30564109 0.00000000)
		(-0.60000000 0.30836618 0.00000000)
		(-0.58000000 0.31109126 0.00000000)
		(-0.56000000 0.31381634 0.00000000)
		(-0.54000000 0.31654142 0.00000000)
		(-0.52000000 0.31926651 0.00000000)
		(-0.50000000 0.32199159 0.00000000)
		(-0.48000000 0.32471667 0.00000000)
		(-0.46000000 0.32744175 0.00000000)
		(-0.44000000 0.33016683 0.00000000)
		(-0.42000000 0.33289192 0.00000000)
		(-0.40000000 0.33561700 0.00000000)
		(-0.38000000 0.33834208 0.00000000)
		(-0.36000000 0.34106716 0.00000000)
		(-0.34000000 0.34379225 0.00000000)
		(-0.32000000 0.34651733 0.00000000)
		(-0.30000000 0.34924241 0.00000000)
		(-0.28000000 0.35196749 0.00000000)
		(-0.26000000 0.35469257 0.00000000)
		(-0.24000000 0.35741766 0.00000000)
		(-0.22000000 0.36014274 0.00000000)
		(-0.20000000 0.36286782 0.00000000)
		(-0.18000000 0.36559290 0.00000000)
		(-0.16000000 0.36831799 0.00000000)
		(-0.14000000 0.37104307 0.00000000)
		(-0.12000000 0.37376815 0.00000000)
		(-0.10000000 0.37649323 0.00000000)
		(-0.08162011 0.37832003 0.00000000)
		(-0.06324022 0.38024081 0.00000000)
		(-0.04486034 0.38225555 0.00000000)
		(-0.02648045 0.38436427 0.00000000)
		(-0.00810056 0.38656696 0.00000000)
		(0.01027933 0.38886362 0.00000000)
		(0.02865922 0.39125425 0.00000000)
		(0.04703911 0.39373886 0.00000000)
		(0.06541899 0.39631744 0.00000000)
		(0.08379888 0.39898999 0.00000000)
		(0.10055866 0.40253465 0.00000000)
		(0.11731844 0.40645918 0.00000000)
		(0.13407821 0.41074829 0.00000000)
		(0.15083799 0.41538525 0.00000000)
		(0.16759777 0.42035199 0.00000000)
		(0.18435754 0.42562916 0.00000000)
		(0.20111732 0.43119619 0.00000000)
		(0.21787709 0.43703138 0.00000000)
		(0.23463687 0.44311199 0.00000000)
		(0.25139665 0.44941432 0.00000000)
		(0.26815642 0.45591380 0.00000000)
		(0.28491620 0.46258511 0.00000000)
		(0.30167598 0.46940224 0.00000000)
		(0.31843575 0.47633863 0.00000000)
		(0.33519553 0.48336723 0.00000000)
		(0.35195531 0.49046066 0.00000000)
		(0.36871508 0.49759127 0.00000000)
		(0.38547486 0.50473127 0.00000000)
		(0.40223464 0.51185283 0.00000000)
		(0.41899441 0.51892819 0.00000000)
		(0.43575419 0.52592978 0.00000000)
		(0.45251397 0.53283031 0.00000000)
		(0.46927374 0.53960289 0.00000000)
		(0.48603352 0.54622111 0.00000000)
		(0.50279330 0.55265919 0.00000000)
		(0.51955307 0.55889203 0.00000000)
		(0.53631285 0.56489534 0.00000000)
		(0.55307263 0.57064572 0.00000000)
		(0.56983240 0.57612076 0.00000000)
		(0.58659218 0.58129913 0.00000000)
		(0.60335196 0.58616063 0.00000000)
		(0.62011173 0.59068632 0.00000000)
		(0.63687151 0.59485857 0.00000000)
		(0.65363128 0.59866111 0.00000000)
		(0.67039106 0.60207912 0.00000000)
		(0.68715084 0.60509928 0.00000000)
		(0.70391061 0.60770982 0.00000000)
		(0.72067039 0.60990056 0.00000000)
		(0.73743017 0.61166296 0.00000000)
		(0.75418994 0.61299017 0.00000000)
		(0.77094972 0.61387700 0.00000000)
		(0.78770950 0.61431999 0.00000000)
		(0.80446927 0.61431743 0.00000000)
		(0.82122905 0.61386932 0.00000000)
		(0.83798883 0.61297740 0.00000000)
		(0.85474860 0.61164516 0.00000000)
		(0.87150838 0.60987779 0.00000000)
		(0.88826816 0.60768216 0.00000000)
		(0.90502793 0.60506686 0.00000000)
		(0.92178771 0.60204205 0.00000000)
		(0.93854749 0.59861954 0.00000000)
		(0.95530726 0.59481267 0.00000000)
		(0.97206704 0.59063626 0.00000000)
		(0.98882682 0.58610660 0.00000000)
		(1.00558659 0.58124134 0.00000000)
		(1.02234637 0.57605945 0.00000000)
		(1.03910615 0.57058112 0.00000000)
		(1.05586592 0.56482770 0.00000000)
		(1.07262570 0.55882161 0.00000000)
		(1.08938547 0.55258627 0.00000000)
		(1.10614525 0.54614598 0.00000000)
		(1.12290503 0.53952584 0.00000000)
		(1.13966480 0.53275164 0.00000000)
		(1.15642458 0.52584979 0.00000000)
		(1.17318436 0.51884720 0.00000000)
		(1.18994413 0.51177115 0.00000000)
		(1.20670391 0.50464922 0.00000000)
		(1.22346369 0.49750917 0.00000000)
		(1.24022346 0.49037883 0.00000000)
		(1.25698324 0.48328599 0.00000000)
		(1.27374302 0.47625829 0.00000000)
		(1.29050279 0.46932312 0.00000000)
		(1.30726257 0.46250752 0.00000000)
		(1.32402235 0.45583804 0.00000000)
		(1.34078212 0.44934068 0.00000000)
		(1.35754190 0.44304076 0.00000000)
		(1.37430168 0.43696284 0.00000000)
		(1.39106145 0.43113061 0.00000000)
		(1.40782123 0.42556679 0.00000000)
		(1.42458101 0.42029308 0.00000000)
		(1.44134078 0.41533002 0.00000000)
		(1.45810056 0.41069696 0.00000000)
		(1.47486034 0.40641195 0.00000000)
		(1.49162011 0.40249170 0.00000000)
		(1.50837989 0.39895149 0.00000000)
		(1.52513966 0.39580511 0.00000000)
		(1.54189944 0.39306483 0.00000000)
		(1.55865922 0.39074132 0.00000000)
		(1.57541899 0.38884365 0.00000000)
		(1.59217877 0.38737921 0.00000000)
		(1.60893855 0.38635370 0.00000000)
		(1.62569832 0.38577113 0.00000000)
		(1.64245810 0.38563376 0.00000000)
		(1.65921788 0.38594212 0.00000000)
		(1.67597765 0.38669503 0.00000000)
		(1.69273743 0.38788954 0.00000000)
		(1.70949721 0.38952100 0.00000000)
		(1.72625698 0.39158304 0.00000000)
		(1.74301676 0.39406764 0.00000000)
		(1.75977654 0.39696510 0.00000000)
		(1.77653631 0.40026415 0.00000000)
		(1.79329609 0.40395190 0.00000000)
		(1.81005587 0.40801401 0.00000000)
		(1.82681564 0.41243463 0.00000000)
		(1.84357542 0.41719653 0.00000000)
		(1.86033520 0.42228115 0.00000000)
		(1.87709497 0.42766868 0.00000000)
		(1.89385475 0.43333812 0.00000000)
		(1.91061453 0.43926738 0.00000000)
		(1.92737430 0.44543333 0.00000000)
		(1.94413408 0.45181196 0.00000000)
		(1.96089385 0.45837840 0.00000000)
		(1.97765363 0.46510706 0.00000000)
		(1.99441341 0.47197172 0.00000000)
		(2.01117318 0.47894561 0.00000000)
		(2.02793296 0.48600156 0.00000000)
		(2.04469274 0.49311207 0.00000000)
		(2.06145251 0.50024943 0.00000000)
		(2.07821229 0.50738581 0.00000000)
		(2.09497207 0.51449341 0.00000000)
		(2.11173184 0.52154452 0.00000000)
		(2.12849162 0.52851166 0.00000000)
		(2.14525140 0.53536768 0.00000000)
		(2.16201117 0.54208586 0.00000000)
		(2.17877095 0.54864000 0.00000000)
		(2.19553073 0.55500457 0.00000000)
		(2.21229050 0.56115477 0.00000000)
		(2.22905028 0.56706661 0.00000000)
		(2.24581006 0.57271706 0.00000000)
		(2.26256983 0.57808410 0.00000000)
		(2.27932961 0.58314682 0.00000000)
		(2.29608939 0.58788546 0.00000000)
		(2.31284916 0.59228158 0.00000000)
		(2.32960894 0.59631803 0.00000000)
		(2.34636872 0.59997909 0.00000000)
		(2.36312849 0.60325048 0.00000000)
		(2.37988827 0.60611945 0.00000000)
		(2.39664804 0.60857483 0.00000000)
		(2.41340782 0.61060704 0.00000000)
		(2.43016760 0.61220816 0.00000000)
		(2.44692737 0.61337195 0.00000000)
		(2.46368715 0.61409388 0.00000000)
		(2.48044693 0.61437113 0.00000000)