/*--------------------------------*- C++ -*----------------------------------*\\
/*--------------------------------*- C++ -*----------------------------------*\\
| =========                 |                                                 |
| \\\\      /  F ield         | OpenFOAM: The Open Source CFD Toolbox           |
|  \\\\    /   O peration     | Version:  v2012                                 |
|   \\\\  /    A nd           | Website:  www.openfoam.com                      |
|    \\\\/     M anipulation  |                                                 |
\\*---------------------------------------------------------------------------*/
FoamFile
{
    version     2.0;
    format      ascii;
    class       dictionary;
    object      blockMeshDict;
}
// * * * * * * * * * * * * * * * * * * * * * * * * * * * * * * * * * * * * * //

scale   0.01;

xmin -1;
xmax 5;
ymin 0;
ymax 0.5;
zmin 0;
zmax 0.1;

vertices
(
    (  -1.0  0.0  $zmin  )
    (  4.0  0.10302962131043915  $zmin  )
    (  4.0  0.6030296213104391  $zmin  )
    (  -1.0  0.5  $zmin  )
    (  -1.0  0.0  $zmax )
    (  4.0  0.10302962131043915  $zmax )
    (  4.0  0.6030296213104391  $zmax )
    (  -1.0  0.5  $zmax )
);

blocks
(
    hex (0 1 2 3 4 5 6 7) (200 20 1) simpleGrading (1 1 1)
);

edges
(
	polyLine 0 1 ((	-1.0	0.0	0	)
	polyLine 0 1 ((-1.0 -0.03785840991649349 0)
(-0.98 -0.03785840991649349 0)
(-0.96 -0.03785840991649349 0)
(-0.94 -0.03785840991649349 0)
(-0.92 -0.03785840991649349 0)
(-0.9 -0.03785840991649349 0)
(-0.88 -0.03785840991649349 0)
(-0.86 -0.03785840991649349 0)
(-0.84 -0.03785840991649349 0)
(-0.8200000000000001 -0.03785840991649349 0)
(-0.8 -0.03785840991649349 0)
(-0.78 -0.03785840991649349 0)
(-0.76 -0.03785840991649349 0)
(-0.74 -0.03785840991649349 0)
(-0.72 -0.03785840991649349 0)
(-0.7 -0.03785840991649349 0)
(-0.6799999999999999 -0.03785840991649349 0)
(-0.6599999999999999 -0.03785840991649349 0)
(-0.64 -0.03785840991649349 0)
(-0.62 -0.03785840991649349 0)
(-0.6 -0.03785840991649349 0)
(-0.5800000000000001 -0.03785840991649349 0)
(-0.56 -0.03785840991649349 0)
(-0.54 -0.03785840991649349 0)
(-0.52 -0.03785840991649349 0)
(-0.5 -0.03785840991649349 0)
(-0.48 -0.03785840991649349 0)
(-0.45999999999999996 -0.03785840991649349 0)
(-0.43999999999999995 -0.03785840991649349 0)
(-0.42000000000000004 -0.03785840991649349 0)
(-0.4 -0.03785840991649349 0)
(-0.38 -0.03785840991649349 0)
(-0.36 -0.03785840991649349 0)
(-0.33999999999999997 -0.03785840991649349 0)
(-0.31999999999999995 -0.03785840991649349 0)
(-0.29999999999999993 -0.03785840991649349 0)
(-0.28 -0.03785840991649349 0)
(-0.26 -0.03785840991649349 0)
(-0.24 -0.03785840991649349 0)
(-0.21999999999999997 -0.03785840991649349 0)
(-0.19999999999999996 -0.03785840991649349 0)
(-0.17999999999999994 -0.03785840991649349 0)
(-0.16000000000000003 -0.03785840991649349 0)
(-0.14 -0.03785840991649349 0)
(-0.12 -0.03785840991649349 0)
(-0.09999999999999998 -0.03785840991649349 0)
(-0.07957790192427062 -0.03749523205039638 0)
(-0.059155803848541265 -0.038911097560918345 0)
(-0.038733705772811905 -0.04210600644805942 0)
(-0.018311607697082552 -0.04707995871181958 0)
(0.002110490378646801 -0.05383295435219884 0)
(0.022532588454376168 -0.062364993369197194 0)
(0.04295468653010551 -0.07267607576281462 0)
(0.06337678460583487 -0.08476620153305117 0)
(0.08379888268156424 -0.09863537067990683 0)
(0.08379888268156424 -0.09863537067990683 0)
(0.1005586592178771 -0.11015267722698463 0)
(0.11731843575418995 -0.12138678568758689 0)
(0.1340782122905028 -0.13230881362236283 0)
(0.15083798882681565 -0.14289068093839596 0)
(0.16759776536312848 -0.15310518208198848 0)
(0.18435754189944134 -0.16292605598304236 0)
(0.2011173184357542 -0.17232805357120962 0)
(0.21787709497206703 -0.1812870026902336 0)
(0.2346368715083799 -0.18977987024358692 0)
(0.25139664804469275 -0.19778482141163228 0)
(0.2681564245810056 -0.20528127578806288 0)
(0.2849162011173184 -0.2122499602912959 0)
(0.3016759776536313 -0.2186729587147874 0)
(0.31843575418994413 -0.22453375778887597 0)
(0.33519553072625696 -0.22981728963573267 0)
(0.35195530726256985 -0.2345099705082663 0)
(0.3687150837988827 -0.23859973571338902 0)
(0.3854748603351955 -0.24207607062985537 0)
(0.4022346368715084 -0.24493003774092872 0)
(0.41899441340782123 -0.2471542996123763 0)
(0.43575418994413406 -0.24874313775671628 0)
(0.4525139664804469 -0.2496924673352182 0)
(0.4692737430167598 -0.24999984765985855 0)
(0.4860335195530726 -0.2496644884682311 0)
(0.5027932960893855 -0.2486872519552797 0)
(0.5195530726256983 -0.2470706505566297 0)
(0.5363128491620112 -0.24481884048921762 0)
(0.553072625698324 -0.2419376110658251 0)
(0.5698324022346368 -0.23843436981098937 0)
(0.5865921787709497 -0.23431812341655672 0)
(0.6033519553072626 -0.22959945458584147 0)
(0.6201117318435754 -0.2242904948259228 0)
(0.6368715083798883 -0.21840489325802984 0)
(0.6536312849162011 -0.21195778152620193 0)
(0.6703910614525139 -0.20496573489444286 0)
(0.6871508379888268 -0.19744672963238585 0)
(0.7039106145251397 -0.1894200967990303 0)
(0.7206703910614525 -0.1809064725433694 0)
(0.7374301675977654 -0.1719277450496839 0)
(0.7541899441340782 -0.1625069982639043 0)
(0.770949720670391 -0.15266845254571745 0)
(0.7877094972067039 -0.1424374023989995 0)
(0.8044692737430168 -0.13184015144066769 0)
(0.8212290502793296 -0.12090394477514314 0)
(0.8379888268156425 -0.1096568989482868 0)
(0.8547486033519552 -0.09812792966089572 0)
(0.8715083798882681 -0.08634667742760285 0)
(0.888268156424581 -0.07434343137231111 0)
(0.9050279329608938 -0.06214905135607824 0)
(0.9217877094972067 -0.04979488863765959 0)
(0.9385474860335196 -0.037312705270687876 0)
(0.9553072625698323 -0.024734592444715327 0)
(0.9720670391061452 -0.012092887980060463 0)
(0.9888268156424581 0.0005799068114219564 0)
(1.005586592178771 0.013251210685902057 0)
(1.0223463687150838 0.025888446232637297 0)
(1.0391061452513966 0.03845912362918067 0)
(1.0558659217877095 0.050930924171402533 0)
(1.0726256983240223 0.06327178336357375 0)
(1.089385474860335 0.07544997335489075 0)
(1.106145251396648 0.0874341845104987 0)
(1.1229050279329609 0.09919360590729827 0)
(1.1396648044692737 0.11069800454758619 0)
(1.1564245810055866 0.12191780308687128 0)
(1.1731843575418994 0.13282415587603277 0)
(1.1899441340782122 0.1433890231223207 0)
(1.2067039106145252 0.15358524297853055 0)
(1.223463687150838 0.16338660137501573 0)
(1.2402234636871508 0.17276789941500298 0)
(1.2569832402234637 0.18170501815993864 0)
(1.2737430167597765 0.19017498063830535 0)
(1.2905027932960893 0.19815601091848928 0)
(1.3072625698324023 0.20562759009382064 0)
(1.324022346368715 0.21257050903585437 0)
(1.3407821229050279 0.21896691778026434 0)
(1.3575418994413408 0.22480037141838075 0)
(1.3743016759776536 0.23005587237638644 0)
(1.3910614525139664 0.23471990897347403 0)
(1.4078212290502794 0.23878049015983163 0)
(1.4245810055865922 0.24222717634514768 0)
(1.441340782122905 0.24505110623837664 0)
(1.458100558659218 0.24724501962976025 0)
(1.4748603351955307 0.24880327605653374 0)
(1.4916201117318435 0.24972186930432802 0)
(1.5083798882681565 0.2499984377069851 0)
(1.5251396648044693 0.24963227021830628 0)
(1.541899441340782 0.2486243082401234 0)
(1.558659217877095 0.24697714320199274 0)
(1.5754189944134078 0.24469500989873402 0)
(1.5921787709497206 0.24178377560294417 0)
(1.6089385474860336 0.23825092498047604 0)
(1.6256983240223464 0.234105540847665 0)
(1.6424581005586592 0.22935828081977433 0)
(1.659217877094972 0.22402134991069705 0)
(1.675977653631285 0.2181084691543575 0)
(1.6927374301675977 0.21163484032848753 0)
(1.7094972067039105 0.20461710687146914 0)
(1.7262569832402235 0.19707331109272624 0)
(1.7430167597765363 0.18902284778667613 0)
(1.759776536312849 0.18048641436949509 0)
(1.776536312849162 0.1714859576668974 0)
(1.7932960893854748 0.16204461748973273 0)
(1.8100558659217876 0.15218666714246562 0)
(1.8268156424581006 0.1419374510174902 0)
(1.8435754189944134 0.1313233194357207 0)
(1.8603351955307261 0.12037156090097959 0)
(1.8770949720670391 0.1091103319423556 0)
(1.893854748603352 0.09756858472490526 0)
(1.9106145251396647 0.08577599261480376 0)
(1.9273743016759777 0.07376287389031952 0)
(1.9441340782122905 0.06156011379474416 0)
(1.9608938547486032 0.04919908513167899 0)
(1.9776536312849162 0.03671156760682286 0)
(1.994413407821229 0.024129666123632813 0)
(2.011173184357542 0.011485728242912201 0)
(2.0279329608938546 -0.001187738981461538 0)
(2.0446927374301676 -0.01385815257686126 0)
(2.0614525139664805 -0.026492937421415758 0)
(2.078212290502793 -0.03905960999333398 0)
(2.094972067039106 -0.05152586188472923 0)
(2.111731843575419 -0.06385964286522963 0)
(2.1284916201117317 -0.07602924328182763 0)
(2.1452513966480447 -0.0880033755831186 0)
(2.1620111731843576 -0.09975125475833105 0)
(2.17877094972067 -0.11124267748434684 0)
(2.195530726256983 -0.12244809977722704 0)
(2.212290502793296 -0.13333871294860009 0)
(2.2290502793296088 -0.14388651767163746 0)
(2.2458100558659218 -0.15406439596619365 0)
(2.2625698324022347 -0.16384618091803654 0)
(2.2793296089385473 -0.17320672395292858 0)
(2.2960893854748603 -0.18212195949259677 0)
(2.3128491620111733 -0.19056896682636115 0)
(2.329608938547486 -0.19852602903935743 0)
(2.346368715083799 -0.20597268884584957 0)
(2.363128491620112 -0.21288980118408377 0)
(2.3798882681564244 -0.2192595824374701 0)
(2.3966480446927374 -0.22506565615554378 0)
(2.4134078212290504 -0.23029309515715662 0)
(2.430167597765363 -0.2349284599076582 0)
(2.446927374301676 -0.23895983307139684 0)
(2.463687150837989 -0.24237685015070812 0)
(2.4804469273743015 -0.24517072613262017 0)
(2.4972067039106145 -0.2473342780747677 0)
(2.5139664804469275 -0.2488619435724462 0)
(2.53072625698324 -0.24974979505933037 0)
(2.547486033519553 -0.24999554990508854 0)
(2.564245810055866 -0.24959857628393292 0)
(2.5810055865921786 -0.2485598947990184 0)
(2.5977653631284916 -0.24688217585851283 0)
(2.6145251396648046 -0.24456973281008568 0)
(2.631284916201117 -0.24162851085146508 0)
(2.64804469273743 -0.23806607174557448 0)
(2.664804469273743 -0.2338915743795456 0)
(2.6815642458100557 -0.22911575121758937 0)
(2.6983240223463687 -0.22375088070826304 0)
(2.7150837988826817 -0.21781075571707562 0)
(2.7318435754189943 -0.2113106480655869 0)
(2.7486033519553073 -0.2042672692681705 0)
(2.7653631284916202 -0.19669872756738535 0)
(2.782122905027933 -0.18862448137841537 0)
(2.798882681564246 -0.18006528926226859 0)
(2.815642458100559 -0.17104315655635588 0)
(2.8324022346368714 -0.1615812787996564 0)
(2.8491620111731844 -0.15170398209792216 0)
(2.8659217877094973 -0.14143666058224413 0)
(2.88268156424581 -0.13080571112176526 0)
(2.899441340782123 -0.11983846545839452 0)
(2.916201117318436 -0.10856311993800384 0)
(2.9329608938547485 -0.09700866301875999 0)
(2.9537430167597765 -0.08616061062863374 0)
(2.9745251396648045 -0.07667996932964574 0)
(2.9953072625698325 -0.06856673912179603 0)
(3.0160893854748605 -0.06182092000508458 0)
(3.036871508379888 -0.0564425119795115 0)
(3.057653631284916 -0.05243151504507655 0)
(3.078435754189944 -0.04978792920177987 0)
(3.099217877094972 -0.04851175444962146 0)
(3.12 -0.04860299078860132 0)
(3.12 -0.04860299078860132 0)
(3.14 -0.04860299078860132 0)
(3.16 -0.04860299078860132 0)
(3.1799999999999997 -0.04860299078860132 0)
(3.2 -0.04860299078860132 0)
(3.2199999999999998 -0.04860299078860132 0)
(3.24 -0.04860299078860132 0)
(3.26 -0.04860299078860132 0)
(3.2800000000000002 -0.04860299078860132 0)
(3.3 -0.04860299078860132 0)
(3.32 -0.04860299078860132 0)
(3.34 -0.04860299078860132 0)
(3.36 -0.04860299078860132 0)
(3.38 -0.04860299078860132 0)
(3.4 -0.04860299078860132 0)
(3.42 -0.04860299078860132 0)
(3.44 -0.04860299078860132 0)
(3.46 -0.04860299078860132 0)
(3.48 -0.04860299078860132 0)
(3.5 -0.04860299078860132 0)
(3.52 -0.04860299078860132 0)
(3.54 -0.04860299078860132 0)
(3.56 -0.04860299078860132 0)
(3.58 -0.04860299078860132 0)
(3.6 -0.04860299078860132 0)
(3.62 -0.04860299078860132 0)
(3.64 -0.04860299078860132 0)
(3.66 -0.04860299078860132 0)
(3.68 -0.04860299078860132 0)
(3.7 -0.04860299078860132 0)
(3.7199999999999998 -0.04860299078860132 0)
(3.74 -0.04860299078860132 0)
(3.76 -0.04860299078860132 0)
(3.78 -0.04860299078860132 0)
(3.8 -0.04860299078860132 0)
(3.82 -0.04860299078860132 0)
(3.84 -0.04860299078860132 0)
(3.86 -0.04860299078860132 0)
(3.88 -0.04860299078860132 0)
(3.9 -0.04860299078860132 0)
(3.92 -0.04860299078860132 0)
(3.94 -0.04860299078860132 0)
(3.96 -0.04860299078860132 0)
(3.98 -0.04860299078860132 0)
(4.0 -0.04860299078860132 0)
)
	polyLine 4 5 ((-1.0 -0.03785840991649349 0.1)
(-0.98 -0.03785840991649349 0.1)
(-0.96 -0.03785840991649349 0.1)
(-0.94 -0.03785840991649349 0.1)
(-0.92 -0.03785840991649349 0.1)
(-0.9 -0.03785840991649349 0.1)
(-0.88 -0.03785840991649349 0.1)
(-0.86 -0.03785840991649349 0.1)
(-0.84 -0.03785840991649349 0.1)
(-0.8200000000000001 -0.03785840991649349 0.1)
(-0.8 -0.03785840991649349 0.1)
(-0.78 -0.03785840991649349 0.1)
(-0.76 -0.03785840991649349 0.1)
(-0.74 -0.03785840991649349 0.1)
(-0.72 -0.03785840991649349 0.1)
(-0.7 -0.03785840991649349 0.1)
(-0.6799999999999999 -0.03785840991649349 0.1)
(-0.6599999999999999 -0.03785840991649349 0.1)
(-0.64 -0.03785840991649349 0.1)
(-0.62 -0.03785840991649349 0.1)
(-0.6 -0.03785840991649349 0.1)
(-0.5800000000000001 -0.03785840991649349 0.1)
(-0.56 -0.03785840991649349 0.1)
(-0.54 -0.03785840991649349 0.1)
(-0.52 -0.03785840991649349 0.1)
(-0.5 -0.03785840991649349 0.1)
(-0.48 -0.03785840991649349 0.1)
(-0.45999999999999996 -0.03785840991649349 0.1)
(-0.43999999999999995 -0.03785840991649349 0.1)
(-0.42000000000000004 -0.03785840991649349 0.1)
(-0.4 -0.03785840991649349 0.1)
(-0.38 -0.03785840991649349 0.1)
(-0.36 -0.03785840991649349 0.1)
(-0.33999999999999997 -0.03785840991649349 0.1)
(-0.31999999999999995 -0.03785840991649349 0.1)
(-0.29999999999999993 -0.03785840991649349 0.1)
(-0.28 -0.03785840991649349 0.1)
(-0.26 -0.03785840991649349 0.1)
(-0.24 -0.03785840991649349 0.1)
(-0.21999999999999997 -0.03785840991649349 0.1)
(-0.19999999999999996 -0.03785840991649349 0.1)
(-0.17999999999999994 -0.03785840991649349 0.1)
(-0.16000000000000003 -0.03785840991649349 0.1)
(-0.14 -0.03785840991649349 0.1)
(-0.12 -0.03785840991649349 0.1)
(-0.09999999999999998 -0.03785840991649349 0.1)
(-0.07957790192427062 -0.03749523205039638 0.1)
(-0.059155803848541265 -0.038911097560918345 0.1)
(-0.038733705772811905 -0.04210600644805942 0.1)
(-0.018311607697082552 -0.04707995871181958 0.1)
(0.002110490378646801 -0.05383295435219884 0.1)
(0.022532588454376168 -0.062364993369197194 0.1)
(0.04295468653010551 -0.07267607576281462 0.1)
(0.06337678460583487 -0.08476620153305117 0.1)
(0.08379888268156424 -0.09863537067990683 0.1)
(0.08379888268156424 -0.09863537067990683 0.1)
(0.1005586592178771 -0.11015267722698463 0.1)
(0.11731843575418995 -0.12138678568758689 0.1)
(0.1340782122905028 -0.13230881362236283 0.1)
(0.15083798882681565 -0.14289068093839596 0.1)
(0.16759776536312848 -0.15310518208198848 0.1)
(0.18435754189944134 -0.16292605598304236 0.1)
(0.2011173184357542 -0.17232805357120962 0.1)
(0.21787709497206703 -0.1812870026902336 0.1)
(0.2346368715083799 -0.18977987024358692 0.1)
(0.25139664804469275 -0.19778482141163228 0.1)
(0.2681564245810056 -0.20528127578806288 0.1)
(0.2849162011173184 -0.2122499602912959 0.1)
(0.3016759776536313 -0.2186729587147874 0.1)
(0.31843575418994413 -0.22453375778887597 0.1)
(0.33519553072625696 -0.22981728963573267 0.1)
(0.35195530726256985 -0.2345099705082663 0.1)
(0.3687150837988827 -0.23859973571338902 0.1)
(0.3854748603351955 -0.24207607062985537 0.1)
(0.4022346368715084 -0.24493003774092872 0.1)
(0.41899441340782123 -0.2471542996123763 0.1)
(0.43575418994413406 -0.24874313775671628 0.1)
(0.4525139664804469 -0.2496924673352182 0.1)
(0.4692737430167598 -0.24999984765985855 0.1)
(0.4860335195530726 -0.2496644884682311 0.1)
(0.5027932960893855 -0.2486872519552797 0.1)
(0.5195530726256983 -0.2470706505566297 0.1)
(0.5363128491620112 -0.24481884048921762 0.1)
(0.553072625698324 -0.2419376110658251 0.1)
(0.5698324022346368 -0.23843436981098937 0.1)
(0.5865921787709497 -0.23431812341655672 0.1)
(0.6033519553072626 -0.22959945458584147 0.1)
(0.6201117318435754 -0.2242904948259228 0.1)
(0.6368715083798883 -0.21840489325802984 0.1)
(0.6536312849162011 -0.21195778152620193 0.1)
(0.6703910614525139 -0.20496573489444286 0.1)
(0.6871508379888268 -0.19744672963238585 0.1)
(0.7039106145251397 -0.1894200967990303 0.1)
(0.7206703910614525 -0.1809064725433694 0.1)
(0.7374301675977654 -0.1719277450496839 0.1)
(0.7541899441340782 -0.1625069982639043 0.1)
(0.770949720670391 -0.15266845254571745 0.1)
(0.7877094972067039 -0.1424374023989995 0.1)
(0.8044692737430168 -0.13184015144066769 0.1)
(0.8212290502793296 -0.12090394477514314 0.1)
(0.8379888268156425 -0.1096568989482868 0.1)
(0.8547486033519552 -0.09812792966089572 0.1)
(0.8715083798882681 -0.08634667742760285 0.1)
(0.888268156424581 -0.07434343137231111 0.1)
(0.9050279329608938 -0.06214905135607824 0.1)
(0.9217877094972067 -0.04979488863765959 0.1)
(0.9385474860335196 -0.037312705270687876 0.1)
(0.9553072625698323 -0.024734592444715327 0.1)
(0.9720670391061452 -0.012092887980060463 0.1)
(0.9888268156424581 0.0005799068114219564 0.1)
(1.005586592178771 0.013251210685902057 0.1)
(1.0223463687150838 0.025888446232637297 0.1)
(1.0391061452513966 0.03845912362918067 0.1)
(1.0558659217877095 0.050930924171402533 0.1)
(1.0726256983240223 0.06327178336357375 0.1)
(1.089385474860335 0.07544997335489075 0.1)
(1.106145251396648 0.0874341845104987 0.1)
(1.1229050279329609 0.09919360590729827 0.1)
(1.1396648044692737 0.11069800454758619 0.1)
(1.1564245810055866 0.12191780308687128 0.1)
(1.1731843575418994 0.13282415587603277 0.1)
(1.1899441340782122 0.1433890231223207 0.1)
(1.2067039106145252 0.15358524297853055 0.1)
(1.223463687150838 0.16338660137501573 0.1)
(1.2402234636871508 0.17276789941500298 0.1)
(1.2569832402234637 0.18170501815993864 0.1)
(1.2737430167597765 0.19017498063830535 0.1)
(1.2905027932960893 0.19815601091848928 0.1)
(1.3072625698324023 0.20562759009382064 0.1)
(1.324022346368715 0.21257050903585437 0.1)
(1.3407821229050279 0.21896691778026434 0.1)
(1.3575418994413408 0.22480037141838075 0.1)
(1.3743016759776536 0.23005587237638644 0.1)
(1.3910614525139664 0.23471990897347403 0.1)
(1.4078212290502794 0.23878049015983163 0.1)
(1.4245810055865922 0.24222717634514768 0.1)
(1.441340782122905 0.24505110623837664 0.1)
(1.458100558659218 0.24724501962976025 0.1)
(1.4748603351955307 0.24880327605653374 0.1)
(1.4916201117318435 0.24972186930432802 0.1)
(1.5083798882681565 0.2499984377069851 0.1)
(1.5251396648044693 0.24963227021830628 0.1)
(1.541899441340782 0.2486243082401234 0.1)
(1.558659217877095 0.24697714320199274 0.1)
(1.5754189944134078 0.24469500989873402 0.1)
(1.5921787709497206 0.24178377560294417 0.1)
(1.6089385474860336 0.23825092498047604 0.1)
(1.6256983240223464 0.234105540847665 0.1)
(1.6424581005586592 0.22935828081977433 0.1)
(1.659217877094972 0.22402134991069705 0.1)
(1.675977653631285 0.2181084691543575 0.1)
(1.6927374301675977 0.21163484032848753 0.1)
(1.7094972067039105 0.20461710687146914 0.1)
(1.7262569832402235 0.19707331109272624 0.1)
(1.7430167597765363 0.18902284778667613 0.1)
(1.759776536312849 0.18048641436949509 0.1)
(1.776536312849162 0.1714859576668974 0.1)
(1.7932960893854748 0.16204461748973273 0.1)
(1.8100558659217876 0.15218666714246562 0.1)
(1.8268156424581006 0.1419374510174902 0.1)
(1.8435754189944134 0.1313233194357207 0.1)
(1.8603351955307261 0.12037156090097959 0.1)
(1.8770949720670391 0.1091103319423556 0.1)
(1.893854748603352 0.09756858472490526 0.1)
(1.9106145251396647 0.08577599261480376 0.1)
(1.9273743016759777 0.07376287389031952 0.1)
(1.9441340782122905 0.06156011379474416 0.1)
(1.9608938547486032 0.04919908513167899 0.1)
(1.9776536312849162 0.03671156760682286 0.1)
(1.994413407821229 0.024129666123632813 0.1)
(2.011173184357542 0.011485728242912201 0.1)
(2.0279329608938546 -0.001187738981461538 0.1)
(2.0446927374301676 -0.01385815257686126 0.1)
(2.0614525139664805 -0.026492937421415758 0.1)
(2.078212290502793 -0.03905960999333398 0.1)
(2.094972067039106 -0.05152586188472923 0.1)
(2.111731843575419 -0.06385964286522963 0.1)
(2.1284916201117317 -0.07602924328182763 0.1)
(2.1452513966480447 -0.0880033755831186 0.1)
(2.1620111731843576 -0.09975125475833105 0.1)
(2.17877094972067 -0.11124267748434684 0.1)
(2.195530726256983 -0.12244809977722704 0.1)
(2.212290502793296 -0.13333871294860009 0.1)
(2.2290502793296088 -0.14388651767163746 0.1)
(2.2458100558659218 -0.15406439596619365 0.1)
(2.2625698324022347 -0.16384618091803654 0.1)
(2.2793296089385473 -0.17320672395292858 0.1)
(2.2960893854748603 -0.18212195949259677 0.1)
(2.3128491620111733 -0.19056896682636115 0.1)
(2.329608938547486 -0.19852602903935743 0.1)
(2.346368715083799 -0.20597268884584957 0.1)
(2.363128491620112 -0.21288980118408377 0.1)
(2.3798882681564244 -0.2192595824374701 0.1)
(2.3966480446927374 -0.22506565615554378 0.1)
(2.4134078212290504 -0.23029309515715662 0.1)
(2.430167597765363 -0.2349284599076582 0.1)
(2.446927374301676 -0.23895983307139684 0.1)
(2.463687150837989 -0.24237685015070812 0.1)
(2.4804469273743015 -0.24517072613262017 0.1)
(2.4972067039106145 -0.2473342780747677 0.1)
(2.5139664804469275 -0.2488619435724462 0.1)
(2.53072625698324 -0.24974979505933037 0.1)
(2.547486033519553 -0.24999554990508854 0.1)
(2.564245810055866 -0.24959857628393292 0.1)
(2.5810055865921786 -0.2485598947990184 0.1)
(2.5977653631284916 -0.24688217585851283 0.1)
(2.6145251396648046 -0.24456973281008568 0.1)
(2.631284916201117 -0.24162851085146508 0.1)
(2.64804469273743 -0.23806607174557448 0.1)
(2.664804469273743 -0.2338915743795456 0.1)
(2.6815642458100557 -0.22911575121758937 0.1)
(2.6983240223463687 -0.22375088070826304 0.1)
(2.7150837988826817 -0.21781075571707562 0.1)
(2.7318435754189943 -0.2113106480655869 0.1)
(2.7486033519553073 -0.2042672692681705 0.1)
(2.7653631284916202 -0.19669872756738535 0.1)
(2.782122905027933 -0.18862448137841537 0.1)
(2.798882681564246 -0.18006528926226859 0.1)
(2.815642458100559 -0.17104315655635588 0.1)
(2.8324022346368714 -0.1615812787996564 0.1)
(2.8491620111731844 -0.15170398209792216 0.1)
(2.8659217877094973 -0.14143666058224413 0.1)
(2.88268156424581 -0.13080571112176526 0.1)
(2.899441340782123 -0.11983846545839452 0.1)
(2.916201117318436 -0.10856311993800384 0.1)
(2.9329608938547485 -0.09700866301875999 0.1)
(2.9537430167597765 -0.08616061062863374 0.1)
(2.9745251396648045 -0.07667996932964574 0.1)
(2.9953072625698325 -0.06856673912179603 0.1)
(3.0160893854748605 -0.06182092000508458 0.1)
(3.036871508379888 -0.0564425119795115 0.1)
(3.057653631284916 -0.05243151504507655 0.1)
(3.078435754189944 -0.04978792920177987 0.1)
(3.099217877094972 -0.04851175444962146 0.1)
(3.12 -0.04860299078860132 0.1)
(3.12 -0.04860299078860132 0.1)
(3.14 -0.04860299078860132 0.1)
(3.16 -0.04860299078860132 0.1)
(3.1799999999999997 -0.04860299078860132 0.1)
(3.2 -0.04860299078860132 0.1)
(3.2199999999999998 -0.04860299078860132 0.1)
(3.24 -0.04860299078860132 0.1)
(3.26 -0.04860299078860132 0.1)
(3.2800000000000002 -0.04860299078860132 0.1)
(3.3 -0.04860299078860132 0.1)
(3.32 -0.04860299078860132 0.1)
(3.34 -0.04860299078860132 0.1)
(3.36 -0.04860299078860132 0.1)
(3.38 -0.04860299078860132 0.1)
(3.4 -0.04860299078860132 0.1)
(3.42 -0.04860299078860132 0.1)
(3.44 -0.04860299078860132 0.1)
(3.46 -0.04860299078860132 0.1)
(3.48 -0.04860299078860132 0.1)
(3.5 -0.04860299078860132 0.1)
(3.52 -0.04860299078860132 0.1)
(3.54 -0.04860299078860132 0.1)
(3.56 -0.04860299078860132 0.1)
(3.58 -0.04860299078860132 0.1)
(3.6 -0.04860299078860132 0.1)
(3.62 -0.04860299078860132 0.1)
(3.64 -0.04860299078860132 0.1)
(3.66 -0.04860299078860132 0.1)
(3.68 -0.04860299078860132 0.1)
(3.7 -0.04860299078860132 0.1)
(3.7199999999999998 -0.04860299078860132 0.1)
(3.74 -0.04860299078860132 0.1)
(3.76 -0.04860299078860132 0.1)
(3.78 -0.04860299078860132 0.1)
(3.8 -0.04860299078860132 0.1)
(3.82 -0.04860299078860132 0.1)
(3.84 -0.04860299078860132 0.1)
(3.86 -0.04860299078860132 0.1)
(3.88 -0.04860299078860132 0.1)
(3.9 -0.04860299078860132 0.1)
(3.92 -0.04860299078860132 0.1)
(3.94 -0.04860299078860132 0.1)
(3.96 -0.04860299078860132 0.1)
(3.98 -0.04860299078860132 0.1)
(4.0 -0.04860299078860132 0.1)
)
	polyLine 3 2 ((-1.0 0.4621415900835065 0)
(-0.98 0.4619265587849957 0)
(-0.96 0.4617115274864849 0)
(-0.94 0.46149649618797406 0)
(-0.92 0.46128146488946326 0)
(-0.9 0.46106643359095245 0)
(-0.88 0.46085140229244165 0)
(-0.86 0.46063637099393084 0)
(-0.84 0.46042133969542004 0)
(-0.8200000000000001 0.46020630839690924 0)
(-0.8 0.4599912770983984 0)
(-0.78 0.4597762457998876 0)
(-0.76 0.45956121450137677 0)
(-0.74 0.45934618320286597 0)
(-0.72 0.45913115190435516 0)
(-0.7 0.45891612060584436 0)
(-0.6799999999999999 0.4587010893073335 0)
(-0.6599999999999999 0.4584860580088227 0)
(-0.64 0.4582710267103119 0)
(-0.62 0.4580559954118011 0)
(-0.6 0.4578409641132903 0)
(-0.5800000000000001 0.4576259328147795 0)
(-0.56 0.4574109015162686 0)
(-0.54 0.4571958702177578 0)
(-0.52 0.456980838919247 0)
(-0.5 0.4567658076207362 0)
(-0.48 0.4565507763222254 0)
(-0.45999999999999996 0.4563357450237146 0)
(-0.43999999999999995 0.45612071372520374 0)
(-0.42000000000000004 0.45590568242669294 0)
(-0.4 0.45569065112818213 0)
(-0.38 0.45547561982967133 0)
(-0.36 0.4552605885311605 0)
(-0.33999999999999997 0.4550455572326497 0)
(-0.31999999999999995 0.45483052593413886 0)
(-0.29999999999999993 0.45461549463562806 0)
(-0.28 0.45440046333711726 0)
(-0.26 0.45418543203860645 0)
(-0.24 0.45397040074009565 0)
(-0.21999999999999997 0.45375536944158484 0)
(-0.19999999999999996 0.453540338143074 0)
(-0.17999999999999994 0.4533253068445632 0)
(-0.16000000000000003 0.4531102755460524 0)
(-0.14 0.4528952442475416 0)
(-0.12 0.45268021294903077 0)
(-0.09999999999999998 0.45246518165051997 0)
(-0.07957790192427062 0.4527633451384093 0)
(-0.059155803848541265 0.4508049628080398 0)
(-0.038733705772811905 0.4465900346594114 0)
(-0.018311607697082552 0.4401185606925242 0)
(0.002110490378646801 0.43139054090737816 0)
(0.022532588454376168 0.4204059753039733 0)
(0.04295468653010551 0.40716486388230955 0)
(0.06337678460583487 0.391667206642387 0)
(0.08379888268156424 0.37391300358420565 0)
(0.08379888268156424 0.37391300358420565 0)
(0.1005586592178771 0.3591902669096141 0)
(0.11731843575418995 0.34482954637454993 0)
(0.1340782122905028 0.3308677628117916 0)
(0.15083798882681565 0.31734081140326525 0)
(0.16759776536312848 0.30428346939498263 0)
(0.18435754189944134 0.29172930668614416 0)
(0.2011173184357542 0.27971059952228444 0)
(0.21787709497206703 0.26825824751434724 0)
(0.2346368715083799 0.25740169419703285 0)
(0.25139664804469275 0.24716885133065986 0)
(0.2681564245810056 0.23758602714115518 0)
(0.2849162011173184 0.22867785868266793 0)
(0.3016759776536313 0.22046724849669735 0)
(0.31843575418994413 0.21297530573058343 0)
(0.33519553072625696 0.2062212918667407 0)
(0.35195530726256985 0.2002225712021653 0)
(0.3687150837988827 0.19499456620552774 0)
(0.3854748603351955 0.19055071786662875 0)
(0.4022346368715084 0.18690245114015708 0)
(0.41899441340782123 0.18405914557259223 0)
(0.43575418994413406 0.18202811118776907 0)
(0.4525139664804469 0.18081456969310156 0)
(0.4692737430167598 0.18042164105478387 0)
(0.4860335195530726 0.18085033547648333 0)
(0.5027932960893855 0.18209955080214735 0)
(0.5195530726256983 0.18416607534960233 0)
(0.5363128491620112 0.18704459616765884 0)
(0.553072625698324 0.19072771269549466 0)
(0.5698324022346368 0.19520595578919775 0)
(0.5865921787709497 0.20046781206655323 0)
(0.6033519553072626 0.20649975350748417 0)
(0.6201117318435754 0.21328627223404506 0)
(0.6368715083798883 0.22080992038055003 0)
(0.6536312849162011 0.22905135495133133 0)
(0.6703910614525139 0.2379893875507999 0)
(0.6871508379888268 0.24760103885795565 0)
(0.7039106145251397 0.2578615977052938 0)
(0.7206703910614525 0.26874468461021905 0)
(0.7374301675977654 0.2802223195956304 0)
(0.7541899441340782 0.2922649941253128 0)
(0.770949720670391 0.3048417469691926 0)
(0.7877094972067039 0.31792024380341016 0)
(0.8044692737430168 0.3314668603405613 0)
(0.8212290502793296 0.3454467687763825 0)
(0.8379888268156425 0.35982402733063046 0)
(0.8547486033519552 0.3745616726519473 0)
(0.8715083798882681 0.3896218148491456 0)
(0.888268156424581 0.40496573490458854 0)
(0.9050279329608938 0.4205539842192211 0)
(0.9217877094972067 0.43634648603332654 0)
(0.9385474860335196 0.452302638462257 0)
(0.9553072625698323 0.46838141888224005 0)
(0.9720670391061452 0.48454148939788905 0)
(0.9888268156424581 0.5007413031202624 0)
(1.005586592178771 0.5169392109822387 0)
(1.0223463687150838 0.5330935688165865 0)
(1.0391061452513966 0.5491628444214377 0)
(1.0558659217877095 0.5651057243379013 0)
(1.0726256983240223 0.5808812200652985 0)
(1.089385474860335 0.5964487734409443 0)
(1.106145251396648 0.6117683609135453 0)
(1.1229050279329609 0.6268005964421347 0)
(1.1396648044692737 0.6415068327559943 0)
(1.1564245810055866 0.655849260715227 0)
(1.1731843575418994 0.6697910065165283 0)
(1.1899441340782122 0.6832962264942479 0)
(1.2067039106145252 0.6963301992730055 0)
(1.223463687150838 0.7088594150349462 0)
(1.2402234636871508 0.7208516616721288 0)
(1.2569832402234637 0.7322761076025559 0)
(1.2737430167597765 0.7431033810369253 0)
(1.2905027932960893 0.7533056454923159 0)
(1.3072625698324023 0.7628566713586611 0)
(1.324022346368715 0.7717319033340166 0)
(1.3407821229050279 0.7799085235552521 0)
(1.3575418994413408 0.7873655102618546 0)
(1.3743016759776536 0.7940836918420275 0)
(1.3910614525139664 0.8000457961221294 0)
(1.4078212290502794 0.8052364947727364 0)
(1.4245810055865922 0.8096424427171571 0)
(1.441340782122905 0.8132523124410872 0)
(1.458100558659218 0.8160568231151907 0)
(1.4748603351955307 0.8180487644557376 0)
(1.4916201117318435 0.8192230152619527 0)