/*--------------------------------*- C++ -*----------------------------------*\\
/*--------------------------------*- C++ -*----------------------------------*\\
| =========                 |                                                 |
| \\\\      /  F ield         | OpenFOAM: The Open Source CFD Toolbox           |
|  \\\\    /   O peration     | Version:  v2012                                 |
|   \\\\  /    A nd           | Website:  www.openfoam.com                      |
|    \\\\/     M anipulation  |                                                 |
\\*---------------------------------------------------------------------------*/
FoamFile
{
    version     2.0;
    format      ascii;
    class       dictionary;
    object      blockMeshDict;
}
// * * * * * * * * * * * * * * * * * * * * * * * * * * * * * * * * * * * * * //

scale   0.01;

xmin -1;
xmax 5;
ymin 0;
ymax 0.5;
zmin 0;
zmax 0.1;

vertices
(
    (-1.00000000 -0.15648952 0.00000000)
    (4.00000000 0.12579363 0.00000000)
    (4.00000000 0.62579363 0.00000000)
    (-1.00000000 0.34351048 0.00000000)
    (-1.00000000 -0.15648952 0.10000000)
    (4.00000000 0.12579363 0.10000000)
    (4.00000000 0.62579363 0.10000000)
    (-1.00000000 0.34351048 0.10000000)
);

blocks
(
    hex (0 1 2 3 4 5 6 7) (200 20 1) simpleGrading (1 1 1)
);

edges
(
	polyLine 0 1
	(
		(-1.00000000 -0.15648952 0.00000000)
		(-0.98000000 -0.15648952 0.00000000)
		(-0.96000000 -0.15648952 0.00000000)
		(-0.94000000 -0.15648952 0.00000000)
		(-0.92000000 -0.15648952 0.00000000)
		(-0.90000000 -0.15648952 0.00000000)
		(-0.88000000 -0.15648952 0.00000000)
		(-0.86000000 -0.15648952 0.00000000)
		(-0.84000000 -0.15648952 0.00000000)
		(-0.82000000 -0.15648952 0.00000000)
		(-0.80000000 -0.15648952 0.00000000)
		(-0.78000000 -0.15648952 0.00000000)
		(-0.76000000 -0.15648952 0.00000000)
		(-0.74000000 -0.15648952 0.00000000)
		(-0.72000000 -0.15648952 0.00000000)
		(-0.70000000 -0.15648952 0.00000000)
		(-0.68000000 -0.15648952 0.00000000)
		(-0.66000000 -0.15648952 0.00000000)
		(-0.64000000 -0.15648952 0.00000000)
		(-0.62000000 -0.15648952 0.00000000)
		(-0.60000000 -0.15648952 0.00000000)
		(-0.58000000 -0.15648952 0.00000000)
		(-0.56000000 -0.15648952 0.00000000)
		(-0.54000000 -0.15648952 0.00000000)
		(-0.52000000 -0.15648952 0.00000000)
		(-0.50000000 -0.15648952 0.00000000)
		(-0.48000000 -0.15648952 0.00000000)
		(-0.46000000 -0.15648952 0.00000000)
		(-0.44000000 -0.15648952 0.00000000)
		(-0.42000000 -0.15648952 0.00000000)
		(-0.40000000 -0.15648952 0.00000000)
		(-0.38000000 -0.15648952 0.00000000)
		(-0.36000000 -0.15648952 0.00000000)
		(-0.34000000 -0.15648952 0.00000000)
		(-0.32000000 -0.15648952 0.00000000)
		(-0.30000000 -0.15648952 0.00000000)
		(-0.28000000 -0.15648952 0.00000000)
		(-0.26000000 -0.15648952 0.00000000)
		(-0.24000000 -0.15648952 0.00000000)
		(-0.22000000 -0.15648952 0.00000000)
		(-0.20000000 -0.15648952 0.00000000)
		(-0.18000000 -0.15648952 0.00000000)
		(-0.16000000 -0.15648952 0.00000000)
		(-0.14000000 -0.15648952 0.00000000)
		(-0.12000000 -0.15648952 0.00000000)
		(-0.10000000 -0.15648952 0.00000000)
		(-0.08162011 -0.15693680 0.00000000)
		(-0.06324022 -0.15827864 0.00000000)
		(-0.04486034 -0.16051504 0.00000000)
		(-0.02648045 -0.16364601 0.00000000)
		(-0.00810056 -0.16767153 0.00000000)
		(0.01027933 -0.17259162 0.00000000)
		(0.02865922 -0.17840626 0.00000000)
		(0.04703911 -0.18511547 0.00000000)
		(0.06541899 -0.19271924 0.00000000)
		(0.08379888 -0.20121757 0.00000000)
		(0.10055866 -0.20863211 0.00000000)
		(0.11731844 -0.21548654 0.00000000)
		(0.13407821 -0.22176246 0.00000000)
		(0.15083799 -0.22744303 0.00000000)
		(0.16759777 -0.23251299 0.00000000)
		(0.18435754 -0.23695873 0.00000000)
		(0.20111732 -0.24076832 0.00000000)
		(0.21787709 -0.24393153 0.00000000)
		(0.23463687 -0.24643987 0.00000000)
		(0.25139665 -0.24828660 0.00000000)
		(0.26815642 -0.24946677 0.00000000)
		(0.28491620 -0.24997720 0.00000000)
		(0.30167598 -0.24981653 0.00000000)
		(0.31843575 -0.24898519 0.00000000)
		(0.33519553 -0.24748541 0.00000000)
		(0.35195531 -0.24532121 0.00000000)
		(0.36871508 -0.24249841 0.00000000)
		(0.38547486 -0.23902459 0.00000000)
		(0.40223464 -0.23490906 0.00000000)
		(0.41899441 -0.23016289 0.00000000)
		(0.43575419 -0.22479881 0.00000000)
		(0.45251397 -0.21883122 0.00000000)
		(0.46927374 -0.21227614 0.00000000)
		(0.48603352 -0.20515117 0.00000000)
		(0.50279330 -0.19747545 0.00000000)
		(0.51955307 -0.18926957 0.00000000)
		(0.53631285 -0.18055556 0.00000000)
		(0.55307263 -0.17135683 0.00000000)
		(0.56983240 -0.16169806 0.00000000)
		(0.58659218 -0.15160518 0.00000000)
		(0.60335196 -0.14110530 0.00000000)
		(0.62011173 -0.13022660 0.00000000)
		(0.63687151 -0.11899829 0.00000000)
		(0.65363128 -0.10745051 0.00000000)
		(0.67039106 -0.09561425 0.00000000)
		(0.68715084 -0.08352131 0.00000000)
		(0.70391061 -0.07120414 0.00000000)
		(0.72067039 -0.05869581 0.00000000)
		(0.73743017 -0.04602991 0.00000000)
		(0.75418994 -0.03324043 0.00000000)
		(0.77094972 -0.02036171 0.00000000)
		(0.78770950 -0.00742832 0.00000000)
		(0.80446927 0.00552500 0.00000000)
		(0.82122905 0.01846350 0.00000000)
		(0.83798883 0.03135242 0.00000000)
		(0.85474860 0.04415718 0.00000000)
		(0.87150838 0.05684339 0.00000000)
		(0.88826816 0.06937699 0.00000000)
		(0.90502793 0.08172434 0.00000000)
		(0.92178771 0.09385229 0.00000000)
		(0.93854749 0.10572827 0.00000000)
		(0.95530726 0.11732041 0.00000000)
		(0.97206704 0.12859759 0.00000000)
		(0.98882682 0.13952953 0.00000000)
		(1.00558659 0.15008688 0.00000000)
		(1.02234637 0.16024129 0.00000000)
		(1.03910615 0.16996552 0.00000000)
		(1.05586592 0.17923344 0.00000000)
		(1.07262570 0.18802018 0.00000000)
		(1.08938547 0.19630216 0.00000000)
		(1.10614525 0.20405712 0.00000000)
		(1.12290503 0.21126427 0.00000000)
		(1.13966480 0.21790424 0.00000000)
		(1.15642458 0.22395922 0.00000000)
		(1.17318436 0.22941294 0.00000000)
		(1.18994413 0.23425077 0.00000000)
		(1.20670391 0.23845971 0.00000000)
		(1.22346369 0.24202847 0.00000000)
		(1.24022346 0.24494747 0.00000000)
		(1.25698324 0.24720886 0.00000000)
		(1.27374302 0.24880659 0.00000000)
		(1.29050279 0.24973636 0.00000000)
		(1.30726257 0.24999566 0.00000000)
		(1.32402235 0.24958382 0.00000000)
		(1.34078212 0.24850193 0.00000000)
		(1.35754190 0.24675289 0.00000000)
		(1.37430168 0.24434141 0.00000000)
		(1.39106145 0.24127396 0.00000000)
		(1.40782123 0.23755877 0.00000000)
		(1.42458101 0.23320581 0.00000000)
		(1.44134078 0.22822678 0.00000000)
		(1.45810056 0.22263503 0.00000000)
		(1.47486034 0.21644559 0.00000000)
		(1.49162011 0.20967506 0.00000000)
		(1.50837989 0.20234163 0.00000000)
		(1.52513966 0.19446498 0.00000000)
		(1.54189944 0.18606626 0.00000000)
		(1.55865922 0.17716802 0.00000000)
		(1.57541899 0.16779414 0.00000000)
		(1.59217877 0.15796979 0.00000000)
		(1.60893855 0.14772134 0.00000000)
		(1.62569832 0.13707631 0.00000000)
		(1.64245810 0.12606328 0.00000000)
		(1.65921788 0.11471182 0.00000000)
		(1.67597765 0.10305239 0.00000000)
		(1.69273743 0.09111630 0.00000000)
		(1.70949721 0.07893559 0.00000000)
		(1.72625698 0.06654297 0.00000000)
		(1.74301676 0.05397171 0.00000000)
		(1.75977654 0.04125555 0.00000000)
		(1.77653631 0.02842863 0.00000000)
		(1.79329609 0.01552539 0.00000000)
		(1.81005587 0.00258047 0.00000000)
		(1.82681564 -0.01037137 0.00000000)
		(1.84357542 -0.02329538 0.00000000)
		(1.86033520 -0.03615684 0.00000000)
		(1.87709497 -0.04892123 0.00000000)
		(1.89385475 -0.06155429 0.00000000)
		(1.91061453 -0.07402210 0.00000000)
		(1.92737430 -0.08629118 0.00000000)
		(1.94413408 -0.09832860 0.00000000)
		(1.96089385 -0.11010204 0.00000000)
		(1.97765363 -0.12157989 0.00000000)
		(1.99441341 -0.13273135 0.00000000)
		(2.01117318 -0.14352646 0.00000000)
		(2.02793296 -0.15393626 0.00000000)
		(2.04469274 -0.16393279 0.00000000)
		(2.06145251 -0.17348921 0.00000000)
		(2.07821229 -0.18257988 0.00000000)
		(2.09497207 -0.19118039 0.00000000)
		(2.11173184 -0.19926763 0.00000000)
		(2.12849162 -0.20681992 0.00000000)
		(2.14525140 -0.21381696 0.00000000)
		(2.16201117 -0.22023998 0.00000000)
		(2.17877095 -0.22607173 0.00000000)
		(2.19553073 -0.23129655 0.00000000)
		(2.21229050 -0.23590042 0.00000000)
		(2.22905028 -0.23987098 0.00000000)
		(2.24581006 -0.24319757 0.00000000)
		(2.26256983 -0.24587126 0.00000000)
		(2.27932961 -0.24788486 0.00000000)
		(2.29608939 -0.24923298 0.00000000)
		(2.31284916 -0.24991200 0.00000000)
		(2.32960894 -0.24992008 0.00000000)
		(2.34636872 -0.24925722 0.00000000)
		(2.36312849 -0.24792519 0.00000000)
		(2.37988827 -0.24592756 0.00000000)
		(2.39664804 -0.24326970 0.00000000)
		(2.41340782 -0.23995875 0.00000000)
		(2.43016760 -0.23600358 0.00000000)
		(2.44692737 -0.23141483 0.00000000)
		(2.46368715 -0.22620481 0.00000000)
		(2.48044693 -0.22038751 0.00000000)
		(2.49720670 -0.21397854 0.00000000)
		(2.51396648 -0.20699512 0.00000000)
		(2.53072626 -0.19945598 0.00000000)
		(2.54748603 -0.19138137 0.00000000)
		(2.56424581 -0.18279297 0.00000000)
		(2.58100559 -0.17371383 0.00000000)
		(2.59776536 -0.16416833 0.00000000)
		(2.61452514 -0.15418209 0.00000000)
		(2.63128492 -0.14378193 0.00000000)
		(2.64804469 -0.13299576 0.00000000)
		(2.66480447 -0.12185254 0.00000000)
		(2.68156425 -0.11038219 0.00000000)
		(2.69832402 -0.09861550 0.00000000)
		(2.71508380 -0.08658407 0.00000000)
		(2.73184358 -0.07432018 0.00000000)
		(2.74860335 -0.06185678 0.00000000)
		(2.76536313 -0.04922730 0.00000000)
		(2.78212291 -0.03646567 0.00000000)
		(2.79888268 -0.02360614 0.00000000)
		(2.81564246 -0.01068324 0.00000000)
		(2.83240223 0.00226835 0.00000000)
		(2.84916201 0.01521384 0.00000000)
		(2.86592179 0.02811849 0.00000000)
		(2.88268156 0.04094766 0.00000000)
		(2.89944134 0.05366689 0.00000000)
		(2.91620112 0.06624204 0.00000000)
		(2.93296089 0.07863936 0.00000000)
		(2.95166480 0.08759867 0.00000000)
		(2.97036872 0.09561490 0.00000000)
		(2.98907263 0.10268804 0.00000000)
		(3.00777654 0.10881809 0.00000000)
		(3.02648045 0.11400506 0.00000000)
		(3.04518436 0.11824895 0.00000000)
		(3.06388827 0.12154975 0.00000000)
		(3.08259218 0.12390746 0.00000000)
		(3.10129609 0.12532209 0.00000000)
		(3.12000000 0.12579363 0.00000000)
		(3.14000000 0.12579363 0.00000000)
		(3.16000000 0.12579363 0.00000000)
		(3.18000000 0.12579363 0.00000000)
		(3.20000000 0.12579363 0.00000000)
		(3.22000000 0.12579363 0.00000000)
		(3.24000000 0.12579363 0.00000000)
		(3.26000000 0.12579363 0.00000000)
		(3.28000000 0.12579363 0.00000000)
		(3.30000000 0.12579363 0.00000000)
		(3.32000000 0.12579363 0.00000000)
		(3.34000000 0.12579363 0.00000000)
		(3.36000000 0.12579363 0.00000000)
		(3.38000000 0.12579363 0.00000000)
		(3.40000000 0.12579363 0.00000000)
		(3.42000000 0.12579363 0.00000000)
		(3.44000000 0.12579363 0.00000000)
		(3.46000000 0.12579363 0.00000000)
		(3.48000000 0.12579363 0.00000000)
		(3.50000000 0.12579363 0.00000000)
		(3.52000000 0.12579363 0.00000000)
		(3.54000000 0.12579363 0.00000000)
		(3.56000000 0.12579363 0.00000000)
		(3.58000000 0.12579363 0.00000000)
		(3.60000000 0.12579363 0.00000000)
		(3.62000000 0.12579363 0.00000000)
		(3.64000000 0.12579363 0.00000000)
		(3.66000000 0.12579363 0.00000000)
		(3.68000000 0.12579363 0.00000000)
		(3.70000000 0.12579363 0.00000000)
		(3.72000000 0.12579363 0.00000000)
		(3.74000000 0.12579363 0.00000000)
		(3.76000000 0.12579363 0.00000000)
		(3.78000000 0.12579363 0.00000000)
		(3.80000000 0.12579363 0.00000000)
		(3.82000000 0.12579363 0.00000000)
		(3.84000000 0.12579363 0.00000000)
		(3.86000000 0.12579363 0.00000000)
		(3.88000000 0.12579363 0.00000000)
		(3.90000000 0.12579363 0.00000000)
		(3.92000000 0.12579363 0.00000000)
		(3.94000000 0.12579363 0.00000000)
		(3.96000000 0.12579363 0.00000000)
		(3.98000000 0.12579363 0.00000000)
		(4.00000000 0.12579363 0.00000000)
	)
	polyLine 4 5
	(
		(-1.00000000 -0.15648952 0.10000000)
		(-0.98000000 -0.15648952 0.10000000)
		(-0.96000000 -0.15648952 0.10000000)
		(-0.94000000 -0.15648952 0.10000000)
		(-0.92000000 -0.15648952 0.10000000)
		(-0.90000000 -0.15648952 0.10000000)
		(-0.88000000 -0.15648952 0.10000000)
		(-0.86000000 -0.15648952 0.10000000)
		(-0.84000000 -0.15648952 0.10000000)
		(-0.82000000 -0.15648952 0.10000000)
		(-0.80000000 -0.15648952 0.10000000)
		(-0.78000000 -0.15648952 0.10000000)
		(-0.76000000 -0.15648952 0.10000000)
		(-0.74000000 -0.15648952 0.10000000)
		(-0.72000000 -0.15648952 0.10000000)
		(-0.70000000 -0.15648952 0.10000000)
		(-0.68000000 -0.15648952 0.10000000)
		(-0.66000000 -0.15648952 0.10000000)
		(-0.64000000 -0.15648952 0.10000000)
		(-0.62000000 -0.15648952 0.10000000)
		(-0.60000000 -0.15648952 0.10000000)
		(-0.58000000 -0.15648952 0.10000000)
		(-0.56000000 -0.15648952 0.10000000)
		(-0.54000000 -0.15648952 0.10000000)
		(-0.52000000 -0.15648952 0.10000000)
		(-0.50000000 -0.15648952 0.10000000)
		(-0.48000000 -0.15648952 0.10000000)
		(-0.46000000 -0.15648952 0.10000000)
		(-0.44000000 -0.15648952 0.10000000)
		(-0.42000000 -0.15648952 0.10000000)
		(-0.40000000 -0.15648952 0.10000000)
		(-0.38000000 -0.15648952 0.10000000)
		(-0.36000000 -0.15648952 0.10000000)
		(-0.34000000 -0.15648952 0.10000000)
		(-0.32000000 -0.15648952 0.10000000)
		(-0.30000000 -0.15648952 0.10000000)
		(-0.28000000 -0.15648952 0.10000000)
		(-0.26000000 -0.15648952 0.10000000)
		(-0.24000000 -0.15648952 0.10000000)
		(-0.22000000 -0.15648952 0.10000000)
		(-0.20000000 -0.15648952 0.10000000)
		(-0.18000000 -0.15648952 0.10000000)
		(-0.16000000 -0.15648952 0.10000000)
		(-0.14000000 -0.15648952 0.10000000)
		(-0.12000000 -0.15648952 0.10000000)
		(-0.10000000 -0.15648952 0.10000000)
		(-0.08162011 -0.15693680 0.10000000)
		(-0.06324022 -0.15827864 0.10000000)
		(-0.04486034 -0.16051504 0.10000000)
		(-0.02648045 -0.16364601 0.10000000)
		(-0.00810056 -0.16767153 0.10000000)
		(0.01027933 -0.17259162 0.10000000)
		(0.02865922 -0.17840626 0.10000000)
		(0.04703911 -0.18511547 0.10000000)
		(0.06541899 -0.19271924 0.10000000)
		(0.08379888 -0.20121757 0.10000000)
		(0.10055866 -0.20863211 0.10000000)
		(0.11731844 -0.21548654 0.10000000)
		(0.13407821 -0.22176246 0.10000000)
		(0.15083799 -0.22744303 0.10000000)
		(0.16759777 -0.23251299 0.10000000)
		(0.18435754 -0.23695873 0.10000000)
		(0.20111732 -0.24076832 0.10000000)
		(0.21787709 -0.24393153 0.10000000)
		(0.23463687 -0.24643987 0.10000000)
		(0.25139665 -0.24828660 0.10000000)
		(0.26815642 -0.24946677 0.10000000)
		(0.28491620 -0.24997720 0.10000000)
		(0.30167598 -0.24981653 0.10000000)
		(0.31843575 -0.24898519 0.10000000)
		(0.33519553 -0.24748541 0.10000000)
		(0.35195531 -0.24532121 0.10000000)
		(0.36871508 -0.24249841 0.10000000)
		(0.38547486 -0.23902459 0.10000000)
		(0.40223464 -0.23490906 0.10000000)
		(0.41899441 -0.23016289 0.10000000)
		(0.43575419 -0.22479881 0.10000000)
		(0.45251397 -0.21883122 0.10000000)
		(0.46927374 -0.21227614 0.10000000)
		(0.48603352 -0.20515117 0.10000000)
		(0.50279330 -0.19747545 0.10000000)
		(0.51955307 -0.18926957 0.10000000)
		(0.53631285 -0.18055556 0.10000000)
		(0.55307263 -0.17135683 0.10000000)
		(0.56983240 -0.16169806 0.10000000)
		(0.58659218 -0.15160518 0.10000000)
		(0.60335196 -0.14110530 0.10000000)
		(0.62011173 -0.13022660 0.10000000)
		(0.63687151 -0.11899829 0.10000000)
		(0.65363128 -0.10745051 0.10000000)
		(0.67039106 -0.09561425 0.10000000)
		(0.68715084 -0.08352131 0.10000000)
		(0.70391061 -0.07120414 0.10000000)
		(0.72067039 -0.05869581 0.10000000)
		(0.73743017 -0.04602991 0.10000000)
		(0.75418994 -0.03324043 0.10000000)
		(0.77094972 -0.02036171 0.10000000)
		(0.78770950 -0.00742832 0.10000000)
		(0.80446927 0.00552500 0.10000000)
		(0.82122905 0.01846350 0.10000000)
		(0.83798883 0.03135242 0.10000000)
		(0.85474860 0.04415718 0.10000000)
		(0.87150838 0.05684339 0.10000000)
		(0.88826816 0.06937699 0.10000000)
		(0.90502793 0.08172434 0.10000000)
		(0.92178771 0.09385229 0.10000000)
		(0.93854749 0.10572827 0.10000000)
		(0.95530726 0.11732041 0.10000000)
		(0.97206704 0.12859759 0.10000000)
		(0.98882682 0.13952953 0.10000000)
		(1.00558659 0.15008688 0.10000000)
		(1.02234637 0.16024129 0.10000000)
		(1.03910615 0.16996552 0.10000000)
		(1.05586592 0.17923344 0.10000000)
		(1.07262570 0.18802018 0.10000000)
		(1.08938547 0.19630216 0.10000000)
		(1.10614525 0.20405712 0.10000000)
		(1.12290503 0.21126427 0.10000000)
		(1.13966480 0.21790424 0.10000000)
		(1.15642458 0.22395922 0.10000000)
		(1.17318436 0.22941294 0.10000000)
		(1.18994413 0.23425077 0.10000000)
		(1.20670391 0.23845971 0.10000000)
		(1.22346369 0.24202847 0.10000000)
		(1.24022346 0.24494747 0.10000000)
		(1.25698324 0.24720886 0.10000000)
		(1.27374302 0.24880659 0.10000000)
		(1.29050279 0.24973636 0.10000000)
		(1.30726257 0.24999566 0.10000000)
		(1.32402235 0.24958382 0.10000000)
		(1.34078212 0.24850193 0.10000000)
		(1.35754190 0.24675289 0.10000000)
		(1.37430168 0.24434141 0.10000000)
		(1.39106145 0.24127396 0.10000000)
		(1.40782123 0.23755877 0.10000000)
		(1.42458101 0.23320581 0.10000000)
		(1.44134078 0.22822678 0.10000000)
		(1.45810056 0.22263503 0.10000000)
		(1.47486034 0.21644559 0.10000000)
		(1.49162011 0.20967506 0.10000000)
		(1.50837989 0.20234163 0.10000000)
		(1.52513966 0.19446498 0.10000000)
		(1.54189944 0.18606626 0.10000000)
		(1.55865922 0.17716802 0.10000000)
		(1.57541899 0.16779414 0.10000000)
		(1.59217877 0.15796979 0.10000000)
		(1.60893855 0.14772134 0.10000000)
		(1.62569832 0.13707631 0.10000000)
		(1.64245810 0.12606328 0.10000000)
		(1.65921788 0.11471182 0.10000000)
		(1.67597765 0.10305239 0.10000000)
		(1.69273743 0.09111630 0.10000000)
		(1.70949721 0.07893559 0.10000000)
		(1.72625698 0.06654297 0.10000000)
		(1.74301676 0.05397171 0.10000000)
		(1.75977654 0.04125555 0.10000000)
		(1.77653631 0.02842863 0.10000000)
		(1.79329609 0.01552539 0.10000000)
		(1.81005587 0.00258047 0.10000000)
		(1.82681564 -0.01037137 0.10000000)
		(1.84357542 -0.02329538 0.10000000)
		(1.86033520 -0.03615684 0.10000000)
		(1.87709497 -0.04892123 0.10000000)
		(1.89385475 -0.06155429 0.10000000)
		(1.91061453 -0.07402210 0.10000000)
		(1.92737430 -0.08629118 0.10000000)
		(1.94413408 -0.09832860 0.10000000)
		(1.96089385 -0.11010204 0.10000000)
		(1.97765363 -0.12157989 0.10000000)
		(1.99441341 -0.13273135 0.10000000)
		(2.01117318 -0.14352646 0.10000000)
		(2.02793296 -0.15393626 0.10000000)
		(2.04469274 -0.16393279 0.10000000)
		(2.06145251 -0.17348921 0.10000000)
		(2.07821229 -0.18257988 0.10000000)
		(2.09497207 -0.19118039 0.10000000)
		(2.11173184 -0.19926763 0.10000000)
		(2.12849162 -0.20681992 0.10000000)
		(2.14525140 -0.21381696 0.10000000)
		(2.16201117 -0.22023998 0.10000000)
		(2.17877095 -0.22607173 0.10000000)
		(2.19553073 -0.23129655 0.10000000)
		(2.21229050 -0.23590042 0.10000000)
		(2.22905028 -0.23987098 0.10000000)
		(2.24581006 -0.24319757 0.10000000)
		(2.26256983 -0.24587126 0.10000000)
		(2.27932961 -0.24788486 0.10000000)
		(2.29608939 -0.24923298 0.10000000)
		(2.31284916 -0.24991200 0.10000000)
		(2.32960894 -0.24992008 0.10000000)
		(2.34636872 -0.24925722 0.10000000)
		(2.36312849 -0.24792519 0.10000000)
		(2.37988827 -0.24592756 0.10000000)
		(2.39664804 -0.24326970 0.10000000)
		(2.41340782 -0.23995875 0.10000000)
		(2.43016760 -0.23600358 0.10000000)
		(2.44692737 -0.23141483 0.10000000)
		(2.46368715 -0.22620481 0.10000000)
		(2.48044693 -0.22038751 0.10000000)
		(2.49720670 -0.21397854 0.10000000)
		(2.51396648 -0.20699512 0.10000000)
		(2.53072626 -0.19945598 0.10000000)
		(2.54748603 -0.19138137 0.10000000)
		(2.56424581 -0.18279297 0.10000000)
		(2.58100559 -0.17371383 0.10000000)
		(2.59776536 -0.16416833 0.10000000)
		(2.61452514 -0.15418209 0.10000000)
		(2.63128492 -0.14378193 0.10000000)
		(2.64804469 -0.13299576 0.10000000)
		(2.66480447 -0.12185254 0.10000000)
		(2.68156425 -0.11038219 0.10000000)
		(2.69832402 -0.09861550 0.10000000)
		(2.71508380 -0.08658407 0.10000000)
		(2.73184358 -0.07432018 0.10000000)
		(2.74860335 -0.06185678 0.10000000)
		(2.76536313 -0.04922730 0.10000000)
		(2.78212291 -0.03646567 0.10000000)
		(2.79888268 -0.02360614 0.10000000)
		(2.81564246 -0.01068324 0.10000000)
		(2.83240223 0.00226835 0.10000000)
		(2.84916201 0.01521384 0.10000000)
		(2.86592179 0.02811849 0.10000000)
		(2.88268156 0.04094766 0.10000000)
		(2.89944134 0.05366689 0.10000000)
		(2.91620112 0.06624204 0.10000000)
		(2.93296089 0.07863936 0.10000000)
		(2.95166480 0.08759867 0.10000000)
		(2.97036872 0.09561490 0.10000000)
		(2.98907263 0.10268804 0.10000000)
		(3.00777654 0.10881809 0.10000000)
		(3.02648045 0.11400506 0.10000000)
		(3.04518436 0.11824895 0.10000000)
		(3.06388827 0.12154975 0.10000000)
		(3.08259218 0.12390746 0.10000000)
		(3.10129609 0.12532209 0.10000000)
		(3.12000000 0.12579363 0.10000000)
		(3.14000000 0.12579363 0.10000000)
		(3.16000000 0.12579363 0.10000000)
		(3.18000000 0.12579363 0.10000000)
		(3.20000000 0.12579363 0.10000000)
		(3.22000000 0.12579363 0.10000000)
		(3.24000000 0.12579363 0.10000000)
		(3.26000000 0.12579363 0.10000000)
		(3.28000000 0.12579363 0.10000000)
		(3.30000000 0.12579363 0.10000000)
		(3.32000000 0.12579363 0.10000000)
		(3.34000000 0.12579363 0.10000000)
		(3.36000000 0.12579363 0.10000000)
		(3.38000000 0.12579363 0.10000000)
		(3.40000000 0.12579363 0.10000000)
		(3.42000000 0.12579363 0.10000000)
		(3.44000000 0.12579363 0.10000000)
		(3.46000000 0.12579363 0.10000000)
		(3.48000000 0.12579363 0.10000000)
		(3.50000000 0.12579363 0.10000000)
		(3.52000000 0.12579363 0.10000000)
		(3.54000000 0.12579363 0.10000000)
		(3.56000000 0.12579363 0.10000000)
		(3.58000000 0.12579363 0.10000000)
		(3.60000000 0.12579363 0.10000000)
		(3.62000000 0.12579363 0.10000000)
		(3.64000000 0.12579363 0.10000000)
		(3.66000000 0.12579363 0.10000000)
		(3.68000000 0.12579363 0.10000000)
		(3.70000000 0.12579363 0.10000000)
		(3.72000000 0.12579363 0.10000000)
		(3.74000000 0.12579363 0.10000000)
		(3.76000000 0.12579363 0.10000000)
		(3.78000000 0.12579363 0.10000000)
		(3.80000000 0.12579363 0.10000000)
		(3.82000000 0.12579363 0.10000000)
		(3.84000000 0.12579363 0.10000000)
		(3.86000000 0.12579363 0.10000000)
		(3.88000000 0.12579363 0.10000000)
		(3.90000000 0.12579363 0.10000000)
		(3.92000000 0.12579363 0.10000000)
		(3.94000000 0.12579363 0.10000000)
		(3.96000000 0.12579363 0.10000000)
		(3.98000000 0.12579363 0.10000000)
		(4.00000000 0.12579363 0.10000000)
	)
	polyLine 3 2
	(
		(-1.00000000 0.34351048 0.00000000)
		(-0.98000000 0.34211868 0.00000000)
		(-0.96000000 0.34072688 0.00000000)
		(-0.94000000 0.33933508 0.00000000)
		(-0.92000000 0.33794328 0.00000000)
		(-0.90000000 0.33655148 0.00000000)
		(-0.88000000 0.33515968 0.00000000)
		(-0.86000000 0.33376788 0.00000000)
		(-0.84000000 0.33237608 0.00000000)
		(-0.82000000 0.33098428 0.00000000)
		(-0.80000000 0.32959248 0.00000000)
		(-0.78000000 0.32820068 0.00000000)
		(-0.76000000 0.32680887 0.00000000)
		(-0.74000000 0.32541707 0.00000000)
		(-0.72000000 0.32402527 0.00000000)
		(-0.70000000 0.32263347 0.00000000)
		(-0.68000000 0.32124167 0.00000000)
		(-0.66000000 0.31984987 0.00000000)
		(-0.64000000 0.31845807 0.00000000)
		(-0.62000000 0.31706627 0.00000000)
		(-0.60000000 0.31567447 0.00000000)
		(-0.58000000 0.31428267 0.00000000)
		(-0.56000000 0.31289087 0.00000000)
		(-0.54000000 0.31149907 0.00000000)
		(-0.52000000 0.31010727 0.00000000)
		(-0.50000000 0.30871547 0.00000000)
		(-0.48000000 0.30732367 0.00000000)
		(-0.46000000 0.30593187 0.00000000)
		(-0.44000000 0.30454006 0.00000000)
		(-0.42000000 0.30314826 0.00000000)
		(-0.40000000 0.30175646 0.00000000)
		(-0.38000000 0.30036466 0.00000000)
		(-0.36000000 0.29897286 0.00000000)
		(-0.34000000 0.29758106 0.00000000)
		(-0.32000000 0.29618926 0.00000000)
		(-0.30000000 0.29479746 0.00000000)
		(-0.28000000 0.29340566 0.00000000)
		(-0.26000000 0.29201386 0.00000000)
		(-0.24000000 0.29062206 0.00000000)
		(-0.22000000 0.28923026 0.00000000)
		(-0.20000000 0.28783846 0.00000000)
		(-0.18000000 0.28644666 0.00000000)
		(-0.16000000 0.28505486 0.00000000)
		(-0.14000000 0.28366305 0.00000000)
		(-0.12000000 0.28227125 0.00000000)
		(-0.10000000 0.28087945 0.00000000)
		(-0.08162011 0.28033676 0.00000000)
		(-0.06324022 0.27836382 0.00000000)
		(-0.04486034 0.27496064 0.00000000)
		(-0.02648045 0.27012723 0.00000000)
		(-0.00810056 0.26386357 0.00000000)
		(0.01027933 0.25616967 0.00000000)
		(0.02865922 0.24704554 0.00000000)
		(0.04703911 0.23649116 0.00000000)
		(0.06541899 0.22450654 0.00000000)
		(0.08379888 0.21109169 0.00000000)
		(0.10055866 0.20044589 0.00000000)
		(0.11731844 0.19060429 0.00000000)
		(0.13407821 0.18159332 0.00000000)
		(0.15083799 0.17343715 0.00000000)
		(0.16759777 0.16615770 0.00000000)
		(0.18435754 0.15977450 0.00000000)
		(0.20111732 0.15430469 0.00000000)
		(0.21787709 0.14976295 0.00000000)
		(0.23463687 0.14616148 0.00000000)
		(0.25139665 0.14350994 0.00000000)
		(0.26815642 0.14181546 0.00000000)
		(0.28491620 0.14108258 0.00000000)
		(0.30167598 0.14131327 0.00000000)
		(0.31843575 0.14250691 0.00000000)
		(0.33519553 0.14466030 0.00000000)
		(0.35195531 0.14776765 0.00000000)
		(0.36871508 0.15182063 0.00000000)
		(0.38547486 0.15680835 0.00000000)
		(0.40223464 0.16271742 0.00000000)
		(0.41899441 0.16953198 0.00000000)
		(0.43575419 0.17723373 0.00000000)
		(0.45251397 0.18580200 0.00000000)
		(0.46927374 0.19521379 0.00000000)
		(0.48603352 0.20544382 0.00000000)
		(0.50279330 0.21646463 0.00000000)
		(0.51955307 0.22824664 0.00000000)
		(0.53631285 0.24075821 0.00000000)
		(0.55307263 0.25396576 0.00000000)
		(0.56983240 0.26783383 0.00000000)
		(0.58659218 0.28232518 0.00000000)
		(0.60335196 0.29740092 0.00000000)
		(0.62011173 0.31302056 0.00000000)
		(0.63687151 0.32914218 0.00000000)
		(0.65363128 0.34572250 0.00000000)
		(0.67039106 0.36271699 0.00000000)
		(0.68715084 0.38008005 0.00000000)
		(0.70391061 0.39776505 0.00000000)
		(0.72067039 0.41572451 0.00000000)
		(0.73743017 0.43391023 0.00000000)
		(0.75418994 0.45227337 0.00000000)
		(0.77094972 0.47076465 0.00000000)
		(0.78770950 0.48933441 0.00000000)
		(0.80446927 0.50793280 0.00000000)
		(0.82122905 0.52650990 0.00000000)
		(0.83798883 0.54501583 0.00000000)
		(0.85474860 0.56340090 0.00000000)
		(0.87150838 0.58161577 0.00000000)
		(0.88826816 0.59961152 0.00000000)
		(0.90502793 0.61733986 0.00000000)
		(0.92178771 0.63475317 0.00000000)
		(0.93854749 0.65180472 0.00000000)
		(0.95530726 0.66844873 0.00000000)
		(0.97206704 0.68464050 0.00000000)
		(0.98882682 0.70033659 0.00000000)
		(1.00558659 0.71549483 0.00000000)
		(1.02234637 0.73007455 0.00000000)
		(1.03910615 0.74403659 0.00000000)
		(1.05586592 0.75734348 0.00000000)
		(1.07262570 0.76995950 0.00000000)
		(1.08938547 0.78185076 0.00000000)
		(1.10614525 0.79298535 0.00000000)
		(1.12290503 0.80333337 0.00000000)
		(1.13966480 0.81286705 0.00000000)
		(1.15642458 0.82156079 0.00000000)
		(1.17318436 0.82939125 0.00000000)
		(1.18994413 0.83633740 0.00000000)
		(1.20670391 0.84238060 0.00000000)
		(1.22346369 0.84750463 0.00000000)
		(1.24022346 0.85169573 0.00000000)
		(1.25698324 0.85494264 0.00000000)
		(1.27374302 0.85723666 0.00000000)
		(1.29050279 0.85857162 0.00000000)
		(1.30726257 0.85894393 0.00000000)
		(1.32402235 0.85835261 0.00000000)
		(1.34078212 0.85679923 0.00000000)
		(1.35754190 0.85428796 0.00000000)
		(1.37430168 0.85082556 0.00000000)
		(1.39106145 0.84642130 0.00000000)
		(1.40782123 0.84108703 0.00000000)
		(1.42458101 0.83483705 0.00000000)
		(1.44134078 0.82768815 0.00000000)
		(1.45810056 0.81965952 0.00000000)
		(1.47486034 0.81077271 0.00000000)
		(1.49162011 0.80105159 0.00000000)
		(1.50837989 0.79052224 0.00000000)
		(1.52513966 0.77921295 0.00000000)
		(1.54189944 0.76715406 0.00000000)
		(1.55865922 0.75437795 0.00000000)
		(1.57541899 0.74091893 0.00000000)
		(1.59217877 0.72681312 0.00000000)
		(1.60893855 0.71209839 0.00000000)
		(1.62569832 0.69681426 0.00000000)
		(1.64245810 0.68100174 0.00000000)
		(1.65921788 0.66470330 0.00000000)
		(1.67597765 0.64796268 0.00000000)
		(1.69273743 0.63082484 0.00000000)
		(1.70949721 0.61333578 0.00000000)
		(1.72625698 0.59554245 0.00000000)
		(1.74301676 0.57749262 0.00000000)
		(1.75977654 0.55923474 0.00000000)
		(1.77653631 0.54081785 0.00000000)
		(1.79329609 0.52229137 0.00000000)
		(1.81005587 0.50370505 0.00000000)
		(1.82681564 0.48510878 0.00000000)
		(1.84357542 0.46655248 0.00000000)
		(1.86033520 0.44808599 0.00000000)
		(1.87709497 0.42975886 0.00000000)
		(1.89385475 0.41162031 0.00000000)
		(1.91061453 0.39371903 0.00000000)
		(1.92737430 0.37610307 0.00000000)
		(1.94413408 0.35881974 0.00000000)
		(1.96089385 0.34191542 0.00000000)
		(1.97765363 0.32543551 0.00000000)
		(1.99441341 0.30942425 0.00000000)
		(2.01117318 0.29392462 0.00000000)
		(2.02793296 0.27897822 0.00000000)
		(2.04469274 0.26462520 0.00000000)
		(2.06145251 0.25090408 0.00000000)
		(2.07821229 0.23785169 0.00000000)
		(2.09497207 0.22550308 0.00000000)
		(2.11173184 0.21389140 0.00000000)
		(2.12849162 0.20304783 0.00000000)
		(2.14525140 0.19300147 0.00000000)
		(2.16201117 0.18377930 0.00000000)
		(2.17877095 0.17540607 0.00000000)
		(2.19553073 0.16790426 0.00000000)
		(2.21229050 0.16129402 0.00000000)
		(2.22905028 0.15559309 0.00000000)
		(2.24581006 0.15081677 0.00000000)
		(2.26256983 0.14697789 0.00000000)
		(2.27932961 0.14408676 0.00000000)
		(2.29608939 0.14215112 0.00000000)
		(2.31284916 0.14117619 0.00000000)
		(2.32960894 0.14116458 0.00000000)
		(2.34636872 0.14211632 0.00000000)
		(2.36312849 0.14402886 0.00000000)
		(2.37988827 0.14689705 0.00000000)
		(2.39664804 0.15071321 0.00000000)
		(2.41340782 0.15546708 0.00000000)
		(2.43016760 0.16114590 0.00000000)
		(2.44692737 0.16773444 0.00000000)
		(2.46368715 0.17521499 0.00000000)
		(2.48044693 0.18356747 0.00000000)
		(2.49720670 0.19276947 0.00000000)