/*--------------------------------*- C++ -*----------------------------------*\\
/*--------------------------------*- C++ -*----------------------------------*\\
| =========                 |                                                 |
| \\\\      /  F ield         | OpenFOAM: The Open Source CFD Toolbox           |
|  \\\\    /   O peration     | Version:  v2012                                 |
|   \\\\  /    A nd           | Website:  www.openfoam.com                      |
|    \\\\/     M anipulation  |                                                 |
\\*---------------------------------------------------------------------------*/
FoamFile
{
    version     2.0;
    format      ascii;
    class       dictionary;
    object      blockMeshDict;
}
// * * * * * * * * * * * * * * * * * * * * * * * * * * * * * * * * * * * * * //

scale   0.01;

xmin -1;
xmax 5;
ymin 0;
ymax 0.5;
zmin 0;
zmax 0.1;

vertices
(
    (-1.00000000 -0.19899164 0.00000000)
    (4.00000000 0.21285017 0.00000000)
    (4.00000000 0.71285017 0.00000000)
    (-1.00000000 0.30100836 0.00000000)
    (-1.00000000 -0.19899164 0.10000000)
    (4.00000000 0.21285017 0.10000000)
    (4.00000000 0.71285017 0.10000000)
    (-1.00000000 0.30100836 0.10000000)
);

blocks
(
    hex (0 1 2 3 4 5 6 7) (200 20 1) simpleGrading (1 1 1)
);

edges
(
	polyLine 0 1
	(
		(-1.00000000 -0.19899164 0.00000000)
		(-0.98000000 -0.19899164 0.00000000)
		(-0.96000000 -0.19899164 0.00000000)
		(-0.94000000 -0.19899164 0.00000000)
		(-0.92000000 -0.19899164 0.00000000)
		(-0.90000000 -0.19899164 0.00000000)
		(-0.88000000 -0.19899164 0.00000000)
		(-0.86000000 -0.19899164 0.00000000)
		(-0.84000000 -0.19899164 0.00000000)
		(-0.82000000 -0.19899164 0.00000000)
		(-0.80000000 -0.19899164 0.00000000)
		(-0.78000000 -0.19899164 0.00000000)
		(-0.76000000 -0.19899164 0.00000000)
		(-0.74000000 -0.19899164 0.00000000)
		(-0.72000000 -0.19899164 0.00000000)
		(-0.70000000 -0.19899164 0.00000000)
		(-0.68000000 -0.19899164 0.00000000)
		(-0.66000000 -0.19899164 0.00000000)
		(-0.64000000 -0.19899164 0.00000000)
		(-0.62000000 -0.19899164 0.00000000)
		(-0.60000000 -0.19899164 0.00000000)
		(-0.58000000 -0.19899164 0.00000000)
		(-0.56000000 -0.19899164 0.00000000)
		(-0.54000000 -0.19899164 0.00000000)
		(-0.52000000 -0.19899164 0.00000000)
		(-0.50000000 -0.19899164 0.00000000)
		(-0.48000000 -0.19899164 0.00000000)
		(-0.46000000 -0.19899164 0.00000000)
		(-0.44000000 -0.19899164 0.00000000)
		(-0.42000000 -0.19899164 0.00000000)
		(-0.40000000 -0.19899164 0.00000000)
		(-0.38000000 -0.19899164 0.00000000)
		(-0.36000000 -0.19899164 0.00000000)
		(-0.34000000 -0.19899164 0.00000000)
		(-0.32000000 -0.19899164 0.00000000)
		(-0.30000000 -0.19899164 0.00000000)
		(-0.28000000 -0.19899164 0.00000000)
		(-0.26000000 -0.19899164 0.00000000)
		(-0.24000000 -0.19899164 0.00000000)
		(-0.22000000 -0.19899164 0.00000000)
		(-0.20000000 -0.19899164 0.00000000)
		(-0.18000000 -0.19899164 0.00000000)
		(-0.16000000 -0.19899164 0.00000000)
		(-0.14000000 -0.19899164 0.00000000)
		(-0.12000000 -0.19899164 0.00000000)
		(-0.10000000 -0.19899164 0.00000000)
		(-0.08162011 -0.19946230 0.00000000)
		(-0.06324022 -0.20087426 0.00000000)
		(-0.04486034 -0.20322753 0.00000000)
		(-0.02648045 -0.20652211 0.00000000)
		(-0.00810056 -0.21075800 0.00000000)
		(0.01027933 -0.21593520 0.00000000)
		(0.02865922 -0.22205370 0.00000000)
		(0.04703911 -0.22911352 0.00000000)
		(0.06541899 -0.23711464 0.00000000)
		(0.08379888 -0.24605708 0.00000000)
		(0.10055866 -0.24913173 0.00000000)
		(0.11731844 -0.24998459 0.00000000)
		(0.13407821 -0.24860806 0.00000000)
		(0.15083799 -0.24501441 0.00000000)
		(0.16759777 -0.23923569 0.00000000)
		(0.18435754 -0.23132343 0.00000000)
		(0.20111732 -0.22134821 0.00000000)
		(0.21787709 -0.20939897 0.00000000)
		(0.23463687 -0.19558228 0.00000000)
		(0.25139665 -0.18002137 0.00000000)
		(0.26815642 -0.16285500 0.00000000)
		(0.28491620 -0.14423627 0.00000000)
		(0.30167598 -0.12433123 0.00000000)
		(0.31843575 -0.10331738 0.00000000)
		(0.33519553 -0.08138213 0.00000000)
		(0.35195531 -0.05872111 0.00000000)
		(0.36871508 -0.03553641 0.00000000)
		(0.38547486 -0.01203478 0.00000000)
		(0.40223464 0.01157417 0.00000000)
		(0.41899441 0.03507990 0.00000000)
		(0.43575419 0.05827278 0.00000000)
		(0.45251397 0.08094598 0.00000000)
		(0.46927374 0.10289729 0.00000000)
		(0.48603352 0.12393095 0.00000000)
		(0.50279330 0.14385938 0.00000000)
		(0.51955307 0.16250486 0.00000000)
		(0.53631285 0.17970109 0.00000000)
		(0.55307263 0.19529473 0.00000000)
		(0.56983240 0.20914670 0.00000000)
		(0.58659218 0.22113348 0.00000000)
		(0.60335196 0.23114815 0.00000000)
		(0.62011173 0.23910142 0.00000000)
		(0.63687151 0.24492236 0.00000000)
		(0.65363128 0.24855904 0.00000000)
		(0.67039106 0.24997905 0.00000000)
		(0.68715084 0.24916970 0.00000000)
		(0.70391061 0.24613823 0.00000000)
		(0.72067039 0.24091167 0.00000000)
		(0.73743017 0.23353663 0.00000000)
		(0.75418994 0.22407888 0.00000000)
		(0.77094972 0.21262276 0.00000000)
		(0.78770950 0.19927044 0.00000000)
		(0.80446927 0.18414101 0.00000000)
		(0.82122905 0.16736938 0.00000000)
		(0.83798883 0.14910514 0.00000000)
		(0.85474860 0.12951115 0.00000000)
		(0.87150838 0.10876217 0.00000000)
		(0.88826816 0.08704323 0.00000000)
		(0.90502793 0.06454803 0.00000000)
		(0.92178771 0.04147718 0.00000000)
		(0.93854749 0.01803643 0.00000000)
		(0.95530726 -0.00556517 0.00000000)
		(0.97206704 -0.02911714 0.00000000)
		(0.98882682 -0.05240944 0.00000000)
		(1.00558659 -0.07523434 0.00000000)
		(1.02234637 -0.09738829 0.00000000)
		(1.03910615 -0.11867373 0.00000000)
		(1.05586592 -0.13890081 0.00000000)
		(1.07262570 -0.15788916 0.00000000)
		(1.08938547 -0.17546944 0.00000000)
		(1.10614525 -0.19148485 0.00000000)
		(1.12290503 -0.20579258 0.00000000)
		(1.13966480 -0.21826502 0.00000000)
		(1.15642458 -0.22879095 0.00000000)
		(1.17318436 -0.23727650 0.00000000)
		(1.18994413 -0.24364597 0.00000000)
		(1.20670391 -0.24784259 0.00000000)
		(1.22346369 -0.24982891 0.00000000)
		(1.24022346 -0.24958723 0.00000000)
		(1.25698324 -0.24711969 0.00000000)
		(1.27374302 -0.24244831 0.00000000)
		(1.29050279 -0.23561474 0.00000000)
		(1.30726257 -0.22667994 0.00000000)
		(1.32402235 -0.21572357 0.00000000)
		(1.34078212 -0.20284335 0.00000000)
		(1.35754190 -0.18815414 0.00000000)
		(1.37430168 -0.17178696 0.00000000)
		(1.39106145 -0.15388776 0.00000000)
		(1.40782123 -0.13461616 0.00000000)
		(1.42458101 -0.11414404 0.00000000)
		(1.44134078 -0.09265398 0.00000000)
		(1.45810056 -0.07033761 0.00000000)
		(1.47486034 -0.04739396 0.00000000)
		(1.49162011 -0.02402764 0.00000000)
		(1.50837989 -0.00044705 0.00000000)
		(1.52513966 0.02313754 0.00000000)
		(1.54189944 0.04651578 0.00000000)
		(1.55865922 0.06947918 0.00000000)
		(1.57541899 0.09182296 0.00000000)
		(1.59217877 0.11334786 0.00000000)
		(1.60893855 0.13386190 0.00000000)
		(1.62569832 0.15318214 0.00000000)
		(1.64245810 0.17113629 0.00000000)
		(1.65921788 0.18756422 0.00000000)
		(1.67597765 0.20231943 0.00000000)
		(1.69273743 0.21527033 0.00000000)
		(1.70949721 0.22630142 0.00000000)
		(1.72625698 0.23531432 0.00000000)
		(1.74301676 0.24222866 0.00000000)
		(1.75977654 0.24698278 0.00000000)
		(1.77653631 0.24953427 0.00000000)
		(1.79329609 0.24986038 0.00000000)
		(1.81005587 0.24795821 0.00000000)
		(1.82681564 0.24384471 0.00000000)
		(1.84357542 0.23755658 0.00000000)
		(1.86033520 0.22914988 0.00000000)
		(1.87709497 0.21869960 0.00000000)
		(1.89385475 0.20629892 0.00000000)
		(1.91061453 0.19205845 0.00000000)
		(1.92737430 0.17610517 0.00000000)
		(1.94413408 0.15858137 0.00000000)
		(1.96089385 0.13964331 0.00000000)
		(1.97765363 0.11945990 0.00000000)
		(1.99441341 0.09821113 0.00000000)
		(2.01117318 0.07608650 0.00000000)
		(2.02793296 0.05328332 0.00000000)
		(2.04469274 0.03000496 0.00000000)
		(2.06145251 0.00645900 0.00000000)
		(2.07821229 -0.01714455 0.00000000)
		(2.09497207 -0.04059521 0.00000000)
		(2.11173184 -0.06368384 0.00000000)
		(2.12849162 -0.08620452 0.00000000)
		(2.14525140 -0.10795643 0.00000000)
		(2.16201117 -0.12874556 0.00000000)
		(2.17877095 -0.14838652 0.00000000)
		(2.19553073 -0.16670416 0.00000000)
		(2.21229050 -0.18353510 0.00000000)
		(2.22905028 -0.19872925 0.00000000)
		(2.24581006 -0.21215112 0.00000000)
		(2.26256983 -0.22368099 0.00000000)
		(2.27932961 -0.23321604 0.00000000)
		(2.29608939 -0.24067125 0.00000000)
		(2.31284916 -0.24598012 0.00000000)
		(2.32960894 -0.24909530 0.00000000)
		(2.34636872 -0.24998902 0.00000000)
		(2.36312849 -0.24865331 0.00000000)
		(2.37988827 -0.24510008 0.00000000)
		(2.39664804 -0.23936101 0.00000000)
		(2.41340782 -0.23148729 0.00000000)
		(2.43016760 -0.22154913 0.00000000)
		(2.44692737 -0.20963518 0.00000000)
		(2.46368715 -0.19585166 0.00000000)
		(2.48044693 -0.18032152 0.00000000)
		(2.49720670 -0.16318325 0.00000000)
		(2.51396648 -0.14458969 0.00000000)
		(2.53072626 -0.12470666 0.00000000)
		(2.54748603 -0.10371148 0.00000000)
		(2.56424581 -0.08179139 0.00000000)
		(2.58100559 -0.05914187 0.00000000)
		(2.59776536 -0.03596492 0.00000000)
		(2.61452514 -0.01246722 0.00000000)
		(2.63128492 0.01114165 0.00000000)
		(2.64804469 0.03465117 0.00000000)
		(2.66480447 0.05785166 0.00000000)
		(2.68156425 0.08053622 0.00000000)
		(2.69832402 0.10250255 0.00000000)
		(2.71508380 0.12355475 0.00000000)
		(2.73184358 0.14350507 0.00000000)
		(2.74860335 0.16217560 0.00000000)
		(2.76536313 0.17939982 0.00000000)
		(2.78212291 0.19502413 0.00000000)
		(2.79888268 0.20890920 0.00000000)
		(2.81564246 0.22093118 0.00000000)
		(2.83240223 0.23098287 0.00000000)
		(2.84916201 0.23897462 0.00000000)
		(2.86592179 0.24483517 0.00000000)
		(2.88268156 0.24851225 0.00000000)
		(2.89944134 0.24997306 0.00000000)
		(2.91620112 0.24920459 0.00000000)
		(2.93296089 0.24621367 0.00000000)
		(2.95166480 0.23987461 0.00000000)
		(2.97036872 0.23420281 0.00000000)
		(2.98907263 0.22919829 0.00000000)
		(3.00777654 0.22486103 0.00000000)
		(3.02648045 0.22119105 0.00000000)
		(3.04518436 0.21818833 0.00000000)
		(3.06388827 0.21585289 0.00000000)
		(3.08259218 0.21418471 0.00000000)
		(3.10129609 0.21318381 0.00000000)
		(3.12000000 0.21285017 0.00000000)
		(3.14000000 0.21285017 0.00000000)
		(3.16000000 0.21285017 0.00000000)
		(3.18000000 0.21285017 0.00000000)
		(3.20000000 0.21285017 0.00000000)
		(3.22000000 0.21285017 0.00000000)
		(3.24000000 0.21285017 0.00000000)
		(3.26000000 0.21285017 0.00000000)
		(3.28000000 0.21285017 0.00000000)
		(3.30000000 0.21285017 0.00000000)
		(3.32000000 0.21285017 0.00000000)
		(3.34000000 0.21285017 0.00000000)
		(3.36000000 0.21285017 0.00000000)
		(3.38000000 0.21285017 0.00000000)
		(3.40000000 0.21285017 0.00000000)
		(3.42000000 0.21285017 0.00000000)
		(3.44000000 0.21285017 0.00000000)
		(3.46000000 0.21285017 0.00000000)
		(3.48000000 0.21285017 0.00000000)
		(3.50000000 0.21285017 0.00000000)
		(3.52000000 0.21285017 0.00000000)
		(3.54000000 0.21285017 0.00000000)
		(3.56000000 0.21285017 0.00000000)
		(3.58000000 0.21285017 0.00000000)
		(3.60000000 0.21285017 0.00000000)
		(3.62000000 0.21285017 0.00000000)
		(3.64000000 0.21285017 0.00000000)
		(3.66000000 0.21285017 0.00000000)
		(3.68000000 0.21285017 0.00000000)
		(3.70000000 0.21285017 0.00000000)
		(3.72000000 0.21285017 0.00000000)
		(3.74000000 0.21285017 0.00000000)
		(3.76000000 0.21285017 0.00000000)
		(3.78000000 0.21285017 0.00000000)
		(3.80000000 0.21285017 0.00000000)
		(3.82000000 0.21285017 0.00000000)
		(3.84000000 0.21285017 0.00000000)
		(3.86000000 0.21285017 0.00000000)
		(3.88000000 0.21285017 0.00000000)
		(3.90000000 0.21285017 0.00000000)
		(3.92000000 0.21285017 0.00000000)
		(3.94000000 0.21285017 0.00000000)
		(3.96000000 0.21285017 0.00000000)
		(3.98000000 0.21285017 0.00000000)
		(4.00000000 0.21285017 0.00000000)
	)
	polyLine 4 5
	(
		(-1.00000000 -0.19899164 0.10000000)
		(-0.98000000 -0.19899164 0.10000000)
		(-0.96000000 -0.19899164 0.10000000)
		(-0.94000000 -0.19899164 0.10000000)
		(-0.92000000 -0.19899164 0.10000000)
		(-0.90000000 -0.19899164 0.10000000)
		(-0.88000000 -0.19899164 0.10000000)
		(-0.86000000 -0.19899164 0.10000000)
		(-0.84000000 -0.19899164 0.10000000)
		(-0.82000000 -0.19899164 0.10000000)
		(-0.80000000 -0.19899164 0.10000000)
		(-0.78000000 -0.19899164 0.10000000)
		(-0.76000000 -0.19899164 0.10000000)
		(-0.74000000 -0.19899164 0.10000000)
		(-0.72000000 -0.19899164 0.10000000)
		(-0.70000000 -0.19899164 0.10000000)
		(-0.68000000 -0.19899164 0.10000000)
		(-0.66000000 -0.19899164 0.10000000)
		(-0.64000000 -0.19899164 0.10000000)
		(-0.62000000 -0.19899164 0.10000000)
		(-0.60000000 -0.19899164 0.10000000)
		(-0.58000000 -0.19899164 0.10000000)
		(-0.56000000 -0.19899164 0.10000000)
		(-0.54000000 -0.19899164 0.10000000)
		(-0.52000000 -0.19899164 0.10000000)
		(-0.50000000 -0.19899164 0.10000000)
		(-0.48000000 -0.19899164 0.10000000)
		(-0.46000000 -0.19899164 0.10000000)
		(-0.44000000 -0.19899164 0.10000000)
		(-0.42000000 -0.19899164 0.10000000)
		(-0.40000000 -0.19899164 0.10000000)
		(-0.38000000 -0.19899164 0.10000000)
		(-0.36000000 -0.19899164 0.10000000)
		(-0.34000000 -0.19899164 0.10000000)
		(-0.32000000 -0.19899164 0.10000000)
		(-0.30000000 -0.19899164 0.10000000)
		(-0.28000000 -0.19899164 0.10000000)
		(-0.26000000 -0.19899164 0.10000000)
		(-0.24000000 -0.19899164 0.10000000)
		(-0.22000000 -0.19899164 0.10000000)
		(-0.20000000 -0.19899164 0.10000000)
		(-0.18000000 -0.19899164 0.10000000)
		(-0.16000000 -0.19899164 0.10000000)
		(-0.14000000 -0.19899164 0.10000000)
		(-0.12000000 -0.19899164 0.10000000)
		(-0.10000000 -0.19899164 0.10000000)
		(-0.08162011 -0.19946230 0.10000000)
		(-0.06324022 -0.20087426 0.10000000)
		(-0.04486034 -0.20322753 0.10000000)
		(-0.02648045 -0.20652211 0.10000000)
		(-0.00810056 -0.21075800 0.10000000)
		(0.01027933 -0.21593520 0.10000000)
		(0.02865922 -0.22205370 0.10000000)
		(0.04703911 -0.22911352 0.10000000)
		(0.06541899 -0.23711464 0.10000000)
		(0.08379888 -0.24605708 0.10000000)
		(0.10055866 -0.24913173 0.10000000)
		(0.11731844 -0.24998459 0.10000000)
		(0.13407821 -0.24860806 0.10000000)
		(0.15083799 -0.24501441 0.10000000)
		(0.16759777 -0.23923569 0.10000000)
		(0.18435754 -0.23132343 0.10000000)
		(0.20111732 -0.22134821 0.10000000)
		(0.21787709 -0.20939897 0.10000000)
		(0.23463687 -0.19558228 0.10000000)
		(0.25139665 -0.18002137 0.10000000)
		(0.26815642 -0.16285500 0.10000000)
		(0.28491620 -0.14423627 0.10000000)
		(0.30167598 -0.12433123 0.10000000)
		(0.31843575 -0.10331738 0.10000000)
		(0.33519553 -0.08138213 0.10000000)
		(0.35195531 -0.05872111 0.10000000)
		(0.36871508 -0.03553641 0.10000000)
		(0.38547486 -0.01203478 0.10000000)
		(0.40223464 0.01157417 0.10000000)
		(0.41899441 0.03507990 0.10000000)
		(0.43575419 0.05827278 0.10000000)
		(0.45251397 0.08094598 0.10000000)
		(0.46927374 0.10289729 0.10000000)
		(0.48603352 0.12393095 0.10000000)
		(0.50279330 0.14385938 0.10000000)
		(0.51955307 0.16250486 0.10000000)
		(0.53631285 0.17970109 0.10000000)
		(0.55307263 0.19529473 0.10000000)
		(0.56983240 0.20914670 0.10000000)
		(0.58659218 0.22113348 0.10000000)
		(0.60335196 0.23114815 0.10000000)
		(0.62011173 0.23910142 0.10000000)
		(0.63687151 0.24492236 0.10000000)
		(0.65363128 0.24855904 0.10000000)
		(0.67039106 0.24997905 0.10000000)
		(0.68715084 0.24916970 0.10000000)
		(0.70391061 0.24613823 0.10000000)
		(0.72067039 0.24091167 0.10000000)
		(0.73743017 0.23353663 0.10000000)
		(0.75418994 0.22407888 0.10000000)
		(0.77094972 0.21262276 0.10000000)
		(0.78770950 0.19927044 0.10000000)
		(0.80446927 0.18414101 0.10000000)
		(0.82122905 0.16736938 0.10000000)
		(0.83798883 0.14910514 0.10000000)
		(0.85474860 0.12951115 0.10000000)
		(0.87150838 0.10876217 0.10000000)
		(0.88826816 0.08704323 0.10000000)
		(0.90502793 0.06454803 0.10000000)
		(0.92178771 0.04147718 0.10000000)
		(0.93854749 0.01803643 0.10000000)
		(0.95530726 -0.00556517 0.10000000)
		(0.97206704 -0.02911714 0.10000000)
		(0.98882682 -0.05240944 0.10000000)
		(1.00558659 -0.07523434 0.10000000)
		(1.02234637 -0.09738829 0.10000000)
		(1.03910615 -0.11867373 0.10000000)
		(1.05586592 -0.13890081 0.10000000)
		(1.07262570 -0.15788916 0.10000000)
		(1.08938547 -0.17546944 0.10000000)
		(1.10614525 -0.19148485 0.10000000)
		(1.12290503 -0.20579258 0.10000000)
		(1.13966480 -0.21826502 0.10000000)
		(1.15642458 -0.22879095 0.10000000)
		(1.17318436 -0.23727650 0.10000000)
		(1.18994413 -0.24364597 0.10000000)
		(1.20670391 -0.24784259 0.10000000)
		(1.22346369 -0.24982891 0.10000000)
		(1.24022346 -0.24958723 0.10000000)
		(1.25698324 -0.24711969 0.10000000)
		(1.27374302 -0.24244831 0.10000000)
		(1.29050279 -0.23561474 0.10000000)
		(1.30726257 -0.22667994 0.10000000)
		(1.32402235 -0.21572357 0.10000000)
		(1.34078212 -0.20284335 0.10000000)
		(1.35754190 -0.18815414 0.10000000)
		(1.37430168 -0.17178696 0.10000000)
		(1.39106145 -0.15388776 0.10000000)
		(1.40782123 -0.13461616 0.10000000)
		(1.42458101 -0.11414404 0.10000000)
		(1.44134078 -0.09265398 0.10000000)
		(1.45810056 -0.07033761 0.10000000)
		(1.47486034 -0.04739396 0.10000000)
		(1.49162011 -0.02402764 0.10000000)
		(1.50837989 -0.00044705 0.10000000)
		(1.52513966 0.02313754 0.10000000)
		(1.54189944 0.04651578 0.10000000)
		(1.55865922 0.06947918 0.10000000)
		(1.57541899 0.09182296 0.10000000)
		(1.59217877 0.11334786 0.10000000)
		(1.60893855 0.13386190 0.10000000)
		(1.62569832 0.15318214 0.10000000)
		(1.64245810 0.17113629 0.10000000)
		(1.65921788 0.18756422 0.10000000)
		(1.67597765 0.20231943 0.10000000)
		(1.69273743 0.21527033 0.10000000)
		(1.70949721 0.22630142 0.10000000)
		(1.72625698 0.23531432 0.10000000)
		(1.74301676 0.24222866 0.10000000)
		(1.75977654 0.24698278 0.10000000)
		(1.77653631 0.24953427 0.10000000)
		(1.79329609 0.24986038 0.10000000)
		(1.81005587 0.24795821 0.10000000)
		(1.82681564 0.24384471 0.10000000)
		(1.84357542 0.23755658 0.10000000)
		(1.86033520 0.22914988 0.10000000)
		(1.87709497 0.21869960 0.10000000)
		(1.89385475 0.20629892 0.10000000)
		(1.91061453 0.19205845 0.10000000)
		(1.92737430 0.17610517 0.10000000)
		(1.94413408 0.15858137 0.10000000)
		(1.96089385 0.13964331 0.10000000)
		(1.97765363 0.11945990 0.10000000)
		(1.99441341 0.09821113 0.10000000)
		(2.01117318 0.07608650 0.10000000)
		(2.02793296 0.05328332 0.10000000)
		(2.04469274 0.03000496 0.10000000)
		(2.06145251 0.00645900 0.10000000)
		(2.07821229 -0.01714455 0.10000000)
		(2.09497207 -0.04059521 0.10000000)
		(2.11173184 -0.06368384 0.10000000)
		(2.12849162 -0.08620452 0.10000000)
		(2.14525140 -0.10795643 0.10000000)
		(2.16201117 -0.12874556 0.10000000)
		(2.17877095 -0.14838652 0.10000000)
		(2.19553073 -0.16670416 0.10000000)
		(2.21229050 -0.18353510 0.10000000)
		(2.22905028 -0.19872925 0.10000000)
		(2.24581006 -0.21215112 0.10000000)
		(2.26256983 -0.22368099 0.10000000)
		(2.27932961 -0.23321604 0.10000000)
		(2.29608939 -0.24067125 0.10000000)
		(2.31284916 -0.24598012 0.10000000)
		(2.32960894 -0.24909530 0.10000000)
		(2.34636872 -0.24998902 0.10000000)
		(2.36312849 -0.24865331 0.10000000)
		(2.37988827 -0.24510008 0.10000000)
		(2.39664804 -0.23936101 0.10000000)
		(2.41340782 -0.23148729 0.10000000)
		(2.43016760 -0.22154913 0.10000000)
		(2.44692737 -0.20963518 0.10000000)
		(2.46368715 -0.19585166 0.10000000)
		(2.48044693 -0.18032152 0.10000000)
		(2.49720670 -0.16318325 0.10000000)
		(2.51396648 -0.14458969 0.10000000)
		(2.53072626 -0.12470666 0.10000000)
		(2.54748603 -0.10371148 0.10000000)
		(2.56424581 -0.08179139 0.10000000)
		(2.58100559 -0.05914187 0.10000000)
		(2.59776536 -0.03596492 0.10000000)
		(2.61452514 -0.01246722 0.10000000)
		(2.63128492 0.01114165 0.10000000)
		(2.64804469 0.03465117 0.10000000)
		(2.66480447 0.05785166 0.10000000)
		(2.68156425 0.08053622 0.10000000)
		(2.69832402 0.10250255 0.10000000)
		(2.71508380 0.12355475 0.10000000)
		(2.73184358 0.14350507 0.10000000)
		(2.74860335 0.16217560 0.10000000)
		(2.76536313 0.17939982 0.10000000)
		(2.78212291 0.19502413 0.10000000)
		(2.79888268 0.20890920 0.10000000)
		(2.81564246 0.22093118 0.10000000)
		(2.83240223 0.23098287 0.10000000)
		(2.84916201 0.23897462 0.10000000)
		(2.86592179 0.24483517 0.10000000)
		(2.88268156 0.24851225 0.10000000)
		(2.89944134 0.24997306 0.10000000)
		(2.91620112 0.24920459 0.10000000)
		(2.93296089 0.24621367 0.10000000)
		(2.95166480 0.23987461 0.10000000)
		(2.97036872 0.23420281 0.10000000)
		(2.98907263 0.22919829 0.10000000)
		(3.00777654 0.22486103 0.10000000)
		(3.02648045 0.22119105 0.10000000)
		(3.04518436 0.21818833 0.10000000)
		(3.06388827 0.21585289 0.10000000)
		(3.08259218 0.21418471 0.10000000)
		(3.10129609 0.21318381 0.10000000)
		(3.12000000 0.21285017 0.10000000)
		(3.14000000 0.21285017 0.10000000)
		(3.16000000 0.21285017 0.10000000)
		(3.18000000 0.21285017 0.10000000)
		(3.20000000 0.21285017 0.10000000)
		(3.22000000 0.21285017 0.10000000)
		(3.24000000 0.21285017 0.10000000)
		(3.26000000 0.21285017 0.10000000)
		(3.28000000 0.21285017 0.10000000)
		(3.30000000 0.21285017 0.10000000)
		(3.32000000 0.21285017 0.10000000)
		(3.34000000 0.21285017 0.10000000)
		(3.36000000 0.21285017 0.10000000)
		(3.38000000 0.21285017 0.10000000)
		(3.40000000 0.21285017 0.10000000)
		(3.42000000 0.21285017 0.10000000)
		(3.44000000 0.21285017 0.10000000)
		(3.46000000 0.21285017 0.10000000)
		(3.48000000 0.21285017 0.10000000)
		(3.50000000 0.21285017 0.10000000)
		(3.52000000 0.21285017 0.10000000)
		(3.54000000 0.21285017 0.10000000)
		(3.56000000 0.21285017 0.10000000)
		(3.58000000 0.21285017 0.10000000)
		(3.60000000 0.21285017 0.10000000)
		(3.62000000 0.21285017 0.10000000)
		(3.64000000 0.21285017 0.10000000)
		(3.66000000 0.21285017 0.10000000)
		(3.68000000 0.21285017 0.10000000)
		(3.70000000 0.21285017 0.10000000)
		(3.72000000 0.21285017 0.10000000)
		(3.74000000 0.21285017 0.10000000)
		(3.76000000 0.21285017 0.10000000)
		(3.78000000 0.21285017 0.10000000)
		(3.80000000 0.21285017 0.10000000)
		(3.82000000 0.21285017 0.10000000)
		(3.84000000 0.21285017 0.10000000)
		(3.86000000 0.21285017 0.10000000)
		(3.88000000 0.21285017 0.10000000)
		(3.90000000 0.21285017 0.10000000)
		(3.92000000 0.21285017 0.10000000)
		(3.94000000 0.21285017 0.10000000)
		(3.96000000 0.21285017 0.10000000)
		(3.98000000 0.21285017 0.10000000)
		(4.00000000 0.21285017 0.10000000)
	)
	polyLine 3 2
	(
		(-1.00000000 0.30100836 0.00000000)
		(-0.98000000 0.30057098 0.00000000)
		(-0.96000000 0.30013359 0.00000000)
		(-0.94000000 0.29969621 0.00000000)
		(-0.92000000 0.29925883 0.00000000)
		(-0.90000000 0.29882145 0.00000000)
		(-0.88000000 0.29838407 0.00000000)
		(-0.86000000 0.29794668 0.00000000)
		(-0.84000000 0.29750930 0.00000000)
		(-0.82000000 0.29707192 0.00000000)
		(-0.80000000 0.29663454 0.00000000)
		(-0.78000000 0.29619716 0.00000000)
		(-0.76000000 0.29575977 0.00000000)
		(-0.74000000 0.29532239 0.00000000)
		(-0.72000000 0.29488501 0.00000000)
		(-0.70000000 0.29444763 0.00000000)
		(-0.68000000 0.29401024 0.00000000)
		(-0.66000000 0.29357286 0.00000000)
		(-0.64000000 0.29313548 0.00000000)
		(-0.62000000 0.29269810 0.00000000)
		(-0.60000000 0.29226072 0.00000000)
		(-0.58000000 0.29182333 0.00000000)
		(-0.56000000 0.29138595 0.00000000)
		(-0.54000000 0.29094857 0.00000000)
		(-0.52000000 0.29051119 0.00000000)
		(-0.50000000 0.29007380 0.00000000)
		(-0.48000000 0.28963642 0.00000000)
		(-0.46000000 0.28919904 0.00000000)
		(-0.44000000 0.28876166 0.00000000)
		(-0.42000000 0.28832428 0.00000000)
		(-0.40000000 0.28788689 0.00000000)
		(-0.38000000 0.28744951 0.00000000)
		(-0.36000000 0.28701213 0.00000000)
		(-0.34000000 0.28657475 0.00000000)
		(-0.32000000 0.28613737 0.00000000)
		(-0.30000000 0.28569998 0.00000000)
		(-0.28000000 0.28526260 0.00000000)
		(-0.26000000 0.28482522 0.00000000)
		(-0.24000000 0.28438784 0.00000000)
		(-0.22000000 0.28395045 0.00000000)
		(-0.20000000 0.28351307 0.00000000)
		(-0.18000000 0.28307569 0.00000000)
		(-0.16000000 0.28263831 0.00000000)
		(-0.14000000 0.28220093 0.00000000)
		(-0.12000000 0.28176354 0.00000000)
		(-0.10000000 0.28132616 0.00000000)
		(-0.08162011 0.28136955 0.00000000)
		(-0.06324022 0.28020587 0.00000000)
		(-0.04486034 0.27783513 0.00000000)
		(-0.02648045 0.27425733 0.00000000)
		(-0.00810056 0.26947246 0.00000000)
		(0.01027933 0.26348053 0.00000000)
		(0.02865922 0.25628153 0.00000000)
		(0.04703911 0.24787548 0.00000000)
		(0.06541899 0.23826236 0.00000000)
		(0.08379888 0.22744217 0.00000000)
		(0.10055866 0.22403638 0.00000000)
		(0.11731844 0.22309166 0.00000000)
		(0.13407821 0.22461645 0.00000000)
		(0.15083799 0.22859714 0.00000000)
		(0.16759777 0.23499824 0.00000000)
		(0.18435754 0.24376265 0.00000000)
		(0.20111732 0.25481223 0.00000000)
		(0.21787709 0.26804842 0.00000000)
		(0.23463687 0.28335319 0.00000000)
		(0.25139665 0.30059003 0.00000000)
		(0.26815642 0.31960525 0.00000000)
		(0.28491620 0.34022924 0.00000000)
		(0.30167598 0.36227810 0.00000000)
		(0.31843575 0.38555517 0.00000000)
		(0.33519553 0.40985288 0.00000000)
		(0.35195531 0.43495453 0.00000000)
		(0.36871508 0.46063626 0.00000000)
		(0.38547486 0.48666905 0.00000000)
		(0.40223464 0.51282072 0.00000000)
		(0.41899441 0.53885806 0.00000000)
		(0.43575419 0.56454885 0.00000000)
		(0.45251397 0.58966399 0.00000000)
		(0.46927374 0.61397950 0.00000000)
		(0.48603352 0.63727852 0.00000000)
		(0.50279330 0.65935327 0.00000000)
		(0.51955307 0.68000690 0.00000000)
		(0.53631285 0.69905519 0.00000000)
		(0.55307263 0.71632829 0.00000000)
		(0.56983240 0.73167214 0.00000000)
		(0.58659218 0.74494991 0.00000000)
		(0.60335196 0.75604319 0.00000000)
		(0.62011173 0.76485304 0.00000000)
		(0.63687151 0.77130090 0.00000000)
		(0.65363128 0.77532926 0.00000000)
		(0.67039106 0.77690220 0.00000000)
		(0.68715084 0.77600569 0.00000000)
		(0.70391061 0.77264772 0.00000000)
		(0.72067039 0.76685825 0.00000000)
		(0.73743017 0.75868891 0.00000000)
		(0.75418994 0.74821254 0.00000000)
		(0.77094972 0.73552258 0.00000000)
		(0.78770950 0.72073220 0.00000000)
		(0.80446927 0.70397330 0.00000000)
		(0.82122905 0.68539534 0.00000000)
		(0.83798883 0.66516400 0.00000000)
		(0.85474860 0.64345971 0.00000000)
		(0.87150838 0.62047603 0.00000000)
		(0.88826816 0.59641793 0.00000000)
		(0.90502793 0.57149995 0.00000000)
		(0.92178771 0.54594434 0.00000000)
		(0.93854749 0.51997898 0.00000000)
		(0.95530726 0.49383545 0.00000000)
		(0.97206704 0.46774690 0.00000000)
		(0.98882682 0.44194598 0.00000000)
		(1.00558659 0.41666280 0.00000000)
		(1.02234637 0.39212283 0.00000000)
		(1.03910615 0.36854492 0.00000000)
		(1.05586592 0.34613934 0.00000000)
		(1.07262570 0.32510592 0.00000000)
		(1.08938547 0.30563222 0.00000000)
		(1.10614525 0.28789192 0.00000000)
		(1.12290503 0.27204322 0.00000000)
		(1.13966480 0.25822747 0.00000000)
		(1.15642458 0.24656789 0.00000000)
		(1.17318436 0.23716844 0.00000000)
		(1.18994413 0.23011295 0.00000000)
		(1.20670391 0.22546436 0.00000000)
		(1.22346369 0.22326411 0.00000000)
		(1.24022346 0.22353182 0.00000000)
		(1.25698324 0.22626511 0.00000000)
		(1.27374302 0.23143961 0.00000000)
		(1.29050279 0.23900916 0.00000000)
		(1.30726257 0.24890626 0.00000000)
		(1.32402235 0.26104265 0.00000000)
		(1.34078212 0.27531009 0.00000000)
		(1.35754190 0.29158135 0.00000000)
		(1.37430168 0.30971130 0.00000000)
		(1.39106145 0.32953828 0.00000000)
		(1.40782123 0.35088546 0.00000000)
		(1.42458101 0.37356245 0.00000000)
		(1.44134078 0.39736704 0.00000000)
		(1.45810056 0.42208692 0.00000000)
		(1.47486034 0.44750164 0.00000000)
		(1.49162011 0.47338454 0.00000000)
		(1.50837989 0.49950481 0.00000000)
		(1.52513966 0.52562949 0.00000000)
		(1.54189944 0.55152560 0.00000000)
		(1.55865922 0.57696220 0.00000000)
		(1.57541899 0.60171245 0.00000000)
		(1.59217877 0.62555561 0.00000000)
		(1.60893855 0.64827904 0.00000000)
		(1.62569832 0.66968011 0.00000000)
		(1.64245810 0.68956795 0.00000000)
		(1.65921788 0.70776519 0.00000000)
		(1.67597765 0.72410956 0.00000000)
		(1.69273743 0.73845529 0.00000000)
		(1.70949721 0.75067445 0.00000000)
		(1.72625698 0.76065806 0.00000000)
		(1.74301676 0.76831709 0.00000000)
		(1.75977654 0.77358323 0.00000000)
		(1.77653631 0.77640952 0.00000000)
		(1.79329609 0.77677076 0.00000000)
		(1.81005587 0.77466372 0.00000000)
		(1.82681564 0.77010719 0.00000000)
		(1.84357542 0.76314181 0.00000000)
		(1.86033520 0.75382970 0.00000000)
		(1.87709497 0.74225390 0.00000000)
		(1.89385475 0.72851766 0.00000000)
		(1.91061453 0.71274346 0.00000000)
		(1.92737430 0.69507199 0.00000000)
		(1.94413408 0.67566084 0.00000000)
		(1.96089385 0.65468313 0.00000000)
		(1.97765363 0.63232593 0.00000000)
		(1.99441341 0.60878863 0.00000000)
		(2.01117318 0.58428114 0.00000000)
		(2.02793296 0.55902202 0.00000000)
		(2.04469274 0.53323654 0.00000000)
		(2.06145251 0.50715465 0.00000000)
		(2.07821229 0.48100895 0.00000000)
		(2.09497207 0.45503262 0.00000000)
		(2.11173184 0.42945731 0.00000000)
		(2.12849162 0.40451111 0.00000000)
		(2.14525140 0.38041649 0.00000000)
		(2.16201117 0.35738833 0.00000000)
		(2.17877095 0.33563201 0.00000000)
		(2.19553073 0.31534153 0.00000000)
		(2.21229050 0.29669787 0.00000000)
		(2.22905028 0.27986728 0.00000000)
		(2.24581006 0.26499986 0.00000000)
		(2.26256983 0.25222820 0.00000000)
		(2.27932961 0.24166621 0.00000000)
		(2.29608939 0.23340806 0.00000000)
		(2.31284916 0.22752742 0.00000000)
		(2.32960894 0.22407673 0.00000000)
		(2.34636872 0.22308675 0.00000000)
		(2.36312849 0.22456632 0.00000000)
		(2.37988827 0.22850224 0.00000000)
		(2.39664804 0.23485942 0.00000000)
		(2.41340782 0.24358115 0.00000000)
		(2.43016760 0.25458966 0.00000000)
		(2.44692737 0.26778677 0.00000000)
		(2.46368715 0.28305479 0.00000000)
		(2.48044693 0.30025755 0.00000000)
		(2.49720670 0.31924164 0.00000000)
		(2.51396648 0.33983776 0.00000000)