/*--------------------------------*- C++ -*----------------------------------*\\
/*--------------------------------*- C++ -*----------------------------------*\\
| =========                 |                                                 |
| \\\\      /  F ield         | OpenFOAM: The Open Source CFD Toolbox           |
|  \\\\    /   O peration     | Version:  v2012                                 |
|   \\\\  /    A nd           | Website:  www.openfoam.com                      |
|    \\\\/     M anipulation  |                                                 |
\\*---------------------------------------------------------------------------*/
FoamFile
{
    version     2.0;
    format      ascii;
    class       dictionary;
    object      blockMeshDict;
}
// * * * * * * * * * * * * * * * * * * * * * * * * * * * * * * * * * * * * * //

scale   0.01;

xmin -1;
xmax 5;
ymin 0;
ymax 0.5;
zmin 0;
zmax 0.1;

vertices
(
    (-1.00000000 0.24528540 0.00000000)
    (4.00000000 0.11456223 0.00000000)
    (4.00000000 0.61456223 0.00000000)
    (-1.00000000 0.74528540 0.00000000)
    (-1.00000000 0.24528540 0.10000000)
    (4.00000000 0.11456223 0.10000000)
    (4.00000000 0.61456223 0.10000000)
    (-1.00000000 0.74528540 0.10000000)
);

blocks
(
    hex (0 1 2 3 4 5 6 7) (200 20 1) simpleGrading (1 1 1)
);

edges
(
	polyLine 0 1
	(
		(-1.00000000 0.24528540 0.00000000)
		(-0.98000000 0.24528540 0.00000000)
		(-0.96000000 0.24528540 0.00000000)
		(-0.94000000 0.24528540 0.00000000)
		(-0.92000000 0.24528540 0.00000000)
		(-0.90000000 0.24528540 0.00000000)
		(-0.88000000 0.24528540 0.00000000)
		(-0.86000000 0.24528540 0.00000000)
		(-0.84000000 0.24528540 0.00000000)
		(-0.82000000 0.24528540 0.00000000)
		(-0.80000000 0.24528540 0.00000000)
		(-0.78000000 0.24528540 0.00000000)
		(-0.76000000 0.24528540 0.00000000)
		(-0.74000000 0.24528540 0.00000000)
		(-0.72000000 0.24528540 0.00000000)
		(-0.70000000 0.24528540 0.00000000)
		(-0.68000000 0.24528540 0.00000000)
		(-0.66000000 0.24528540 0.00000000)
		(-0.64000000 0.24528540 0.00000000)
		(-0.62000000 0.24528540 0.00000000)
		(-0.60000000 0.24528540 0.00000000)
		(-0.58000000 0.24528540 0.00000000)
		(-0.56000000 0.24528540 0.00000000)
		(-0.54000000 0.24528540 0.00000000)
		(-0.52000000 0.24528540 0.00000000)
		(-0.50000000 0.24528540 0.00000000)
		(-0.48000000 0.24528540 0.00000000)
		(-0.46000000 0.24528540 0.00000000)
		(-0.44000000 0.24528540 0.00000000)
		(-0.42000000 0.24528540 0.00000000)
		(-0.40000000 0.24528540 0.00000000)
		(-0.38000000 0.24528540 0.00000000)
		(-0.36000000 0.24528540 0.00000000)
		(-0.34000000 0.24528540 0.00000000)
		(-0.32000000 0.24528540 0.00000000)
		(-0.30000000 0.24528540 0.00000000)
		(-0.28000000 0.24528540 0.00000000)
		(-0.26000000 0.24528540 0.00000000)
		(-0.24000000 0.24528540 0.00000000)
		(-0.22000000 0.24528540 0.00000000)
		(-0.20000000 0.24528540 0.00000000)
		(-0.18000000 0.24528540 0.00000000)
		(-0.16000000 0.24528540 0.00000000)
		(-0.14000000 0.24528540 0.00000000)
		(-0.12000000 0.24528540 0.00000000)
		(-0.10000000 0.24528540 0.00000000)
		(-0.08162011 0.24493638 0.00000000)
		(-0.06324022 0.24388933 0.00000000)
		(-0.04486034 0.24214425 0.00000000)
		(-0.02648045 0.23970114 0.00000000)
		(-0.00810056 0.23656000 0.00000000)
		(0.01027933 0.23272082 0.00000000)
		(0.02865922 0.22818361 0.00000000)
		(0.04703911 0.22294837 0.00000000)
		(0.06541899 0.21701510 0.00000000)
		(0.08379888 0.21038380 0.00000000)
		(0.10055866 0.19963808 0.00000000)
		(0.11731844 0.18776296 0.00000000)
		(0.13407821 0.17482561 0.00000000)
		(0.15083799 0.16089922 0.00000000)
		(0.16759777 0.14606259 0.00000000)
		(0.18435754 0.13039964 0.00000000)
		(0.20111732 0.11399898 0.00000000)
		(0.21787709 0.09695340 0.00000000)
		(0.23463687 0.07935933 0.00000000)
		(0.25139665 0.06131630 0.00000000)
		(0.26815642 0.04292639 0.00000000)
		(0.28491620 0.02429364 0.00000000)
		(0.30167598 0.00552344 0.00000000)
		(0.31843575 -0.01327800 0.00000000)
		(0.33519553 -0.03200432 0.00000000)
		(0.35195531 -0.05054959 0.00000000)
		(0.36871508 -0.06880888 0.00000000)
		(0.38547486 -0.08667890 0.00000000)
		(0.40223464 -0.10405856 0.00000000)
		(0.41899441 -0.12084953 0.00000000)
		(0.43575419 -0.13695682 0.00000000)
		(0.45251397 -0.15228931 0.00000000)
		(0.46927374 -0.16676026 0.00000000)
		(0.48603352 -0.18028780 0.00000000)
		(0.50279330 -0.19279540 0.00000000)
		(0.51955307 -0.20421231 0.00000000)
		(0.53631285 -0.21447393 0.00000000)
		(0.55307263 -0.22352222 0.00000000)
		(0.56983240 -0.23130599 0.00000000)
		(0.58659218 -0.23778119 0.00000000)
		(0.60335196 -0.24291120 0.00000000)
		(0.62011173 -0.24666699 0.00000000)
		(0.63687151 -0.24902733 0.00000000)
		(0.65363128 -0.24997885 0.00000000)
		(0.67039106 -0.24951617 0.00000000)
		(0.68715084 -0.24764191 0.00000000)
		(0.70391061 -0.24436668 0.00000000)
		(0.72067039 -0.23970900 0.00000000)
		(0.73743017 -0.23369522 0.00000000)
		(0.75418994 -0.22635936 0.00000000)
		(0.77094972 -0.21774293 0.00000000)
		(0.78770950 -0.20789466 0.00000000)
		(0.80446927 -0.19687028 0.00000000)
		(0.82122905 -0.18473216 0.00000000)
		(0.83798883 -0.17154895 0.00000000)
		(0.85474860 -0.15739524 0.00000000)
		(0.87150838 -0.14235111 0.00000000)
		(0.88826816 -0.12650166 0.00000000)
		(0.90502793 -0.10993655 0.00000000)
		(0.92178771 -0.09274951 0.00000000)
		(0.93854749 -0.07503775 0.00000000)
		(0.95530726 -0.05690149 0.00000000)
		(0.97206704 -0.03844332 0.00000000)
		(0.98882682 -0.01976766 0.00000000)
		(1.00558659 -0.00098018 0.00000000)
		(1.02234637 0.01781285 0.00000000)
		(1.03910615 0.03650511 0.00000000)
		(1.05586592 0.05499085 0.00000000)
		(1.07262570 0.07316549 0.00000000)
		(1.08938547 0.09092622 0.00000000)
		(1.10614525 0.10817255 0.00000000)
		(1.12290503 0.12480692 0.00000000)
		(1.13966480 0.14073522 0.00000000)
		(1.15642458 0.15586735 0.00000000)
		(1.17318436 0.17011769 0.00000000)
		(1.18994413 0.18340563 0.00000000)
		(1.20670391 0.19565600 0.00000000)
		(1.22346369 0.20679948 0.00000000)
		(1.24022346 0.21677305 0.00000000)
		(1.25698324 0.22552028 0.00000000)
		(1.27374302 0.23299167 0.00000000)
		(1.29050279 0.23914497 0.00000000)
		(1.30726257 0.24394536 0.00000000)
		(1.32402235 0.24736569 0.00000000)
		(1.34078212 0.24938660 0.00000000)
		(1.35754190 0.24999666 0.00000000)
		(1.37430168 0.24919243 0.00000000)
		(1.39106145 0.24697845 0.00000000)
		(1.40782123 0.24336724 0.00000000)
		(1.42458101 0.23837924 0.00000000)
		(1.44134078 0.23204267 0.00000000)
		(1.45810056 0.22439337 0.00000000)
		(1.47486034 0.21547461 0.00000000)
		(1.49162011 0.20533686 0.00000000)
		(1.50837989 0.19403746 0.00000000)
		(1.52513966 0.18164033 0.00000000)
		(1.54189944 0.16821562 0.00000000)
		(1.55865922 0.15383927 0.00000000)
		(1.57541899 0.13859261 0.00000000)
		(1.59217877 0.12256189 0.00000000)
		(1.60893855 0.10583781 0.00000000)
		(1.62569832 0.08851498 0.00000000)
		(1.64245810 0.07069139 0.00000000)
		(1.65921788 0.05246788 0.00000000)
		(1.67597765 0.03394754 0.00000000)
		(1.69273743 0.01523516 0.00000000)
		(1.70949721 -0.00356341 0.00000000)
		(1.72625698 -0.02234183 0.00000000)
		(1.74301676 -0.04099385 0.00000000)
		(1.75977654 -0.05941395 0.00000000)
		(1.77653631 -0.07749794 0.00000000)
		(1.79329609 -0.09514350 0.00000000)
		(1.81005587 -0.11225081 0.00000000)
		(1.82681564 -0.12872308 0.00000000)
		(1.84357542 -0.14446714 0.00000000)
		(1.86033520 -0.15939390 0.00000000)
		(1.87709497 -0.17341893 0.00000000)
		(1.89385475 -0.18646288 0.00000000)
		(1.91061453 -0.19845196 0.00000000)
		(1.92737430 -0.20931835 0.00000000)
		(1.94413408 -0.21900057 0.00000000)
		(1.96089385 -0.22744384 0.00000000)
		(1.97765363 -0.23460039 0.00000000)
		(1.99441341 -0.24042976 0.00000000)
		(2.01117318 -0.24489894 0.00000000)
		(2.02793296 -0.24798267 0.00000000)
		(2.04469274 -0.24966349 0.00000000)
		(2.06145251 -0.24993190 0.00000000)
		(2.07821229 -0.24878638 0.00000000)
		(2.09497207 -0.24623340 0.00000000)
		(2.11173184 -0.24228742 0.00000000)
		(2.12849162 -0.23697075 0.00000000)
		(2.14525140 -0.23031347 0.00000000)
		(2.16201117 -0.22235325 0.00000000)
		(2.17877095 -0.21313512 0.00000000)
		(2.19553073 -0.20271122 0.00000000)
		(2.21229050 -0.19114054 0.00000000)
		(2.22905028 -0.17848851 0.00000000)
		(2.24581006 -0.16482674 0.00000000)
		(2.26256983 -0.15023249 0.00000000)
		(2.27932961 -0.13478833 0.00000000)
		(2.29608939 -0.11858165 0.00000000)
		(2.31284916 -0.10170411 0.00000000)
		(2.32960894 -0.08425121 0.00000000)
		(2.34636872 -0.06632167 0.00000000)
		(2.36312849 -0.04801694 0.00000000)
		(2.37988827 -0.02944056 0.00000000)
		(2.39664804 -0.01069763 0.00000000)
		(2.41340782 0.00810583 0.00000000)
		(2.43016760 0.02686342 0.00000000)
		(2.44692737 0.04546904 0.00000000)
		(2.46368715 0.06381743 0.00000000)
		(2.48044693 0.08180479 0.00000000)
		(2.49720670 0.09932936 0.00000000)
		(2.51396648 0.11629199 0.00000000)
		(2.53072626 0.13259673 0.00000000)
		(2.54748603 0.14815133 0.00000000)
		(2.56424581 0.16286780 0.00000000)
		(2.58100559 0.17666289 0.00000000)
		(2.59776536 0.18945854 0.00000000)
		(2.61452514 0.20118238 0.00000000)
		(2.63128492 0.21176807 0.00000000)
		(2.64804469 0.22115574 0.00000000)
		(2.66480447 0.22929227 0.00000000)
		(2.68156425 0.23613163 0.00000000)
		(2.69832402 0.24163513 0.00000000)
		(2.71508380 0.24577163 0.00000000)
		(2.73184358 0.24851774 0.00000000)
		(2.74860335 0.24985792 0.00000000)
		(2.76536313 0.24978458 0.00000000)
		(2.78212291 0.24829814 0.00000000)
		(2.79888268 0.24540702 0.00000000)
		(2.81564246 0.24112756 0.00000000)
		(2.83240223 0.23548398 0.00000000)
		(2.84916201 0.22850820 0.00000000)
		(2.86592179 0.22023969 0.00000000)
		(2.88268156 0.21072523 0.00000000)
		(2.89944134 0.20001863 0.00000000)
		(2.91620112 0.18818048 0.00000000)
		(2.93296089 0.17527774 0.00000000)
		(2.95166480 0.16374179 0.00000000)
		(2.97036872 0.15342015 0.00000000)
		(2.98907263 0.14431283 0.00000000)
		(3.00777654 0.13641981 0.00000000)
		(3.02648045 0.12974111 0.00000000)
		(3.04518436 0.12427671 0.00000000)
		(3.06388827 0.12002662 0.00000000)
		(3.08259218 0.11699085 0.00000000)
		(3.10129609 0.11516938 0.00000000)
		(3.12000000 0.11456223 0.00000000)
		(3.14000000 0.11456223 0.00000000)
		(3.16000000 0.11456223 0.00000000)
		(3.18000000 0.11456223 0.00000000)
		(3.20000000 0.11456223 0.00000000)
		(3.22000000 0.11456223 0.00000000)
		(3.24000000 0.11456223 0.00000000)
		(3.26000000 0.11456223 0.00000000)
		(3.28000000 0.11456223 0.00000000)
		(3.30000000 0.11456223 0.00000000)
		(3.32000000 0.11456223 0.00000000)
		(3.34000000 0.11456223 0.00000000)
		(3.36000000 0.11456223 0.00000000)
		(3.38000000 0.11456223 0.00000000)
		(3.40000000 0.11456223 0.00000000)
		(3.42000000 0.11456223 0.00000000)
		(3.44000000 0.11456223 0.00000000)
		(3.46000000 0.11456223 0.00000000)
		(3.48000000 0.11456223 0.00000000)
		(3.50000000 0.11456223 0.00000000)
		(3.52000000 0.11456223 0.00000000)
		(3.54000000 0.11456223 0.00000000)
		(3.56000000 0.11456223 0.00000000)
		(3.58000000 0.11456223 0.00000000)
		(3.60000000 0.11456223 0.00000000)
		(3.62000000 0.11456223 0.00000000)
		(3.64000000 0.11456223 0.00000000)
		(3.66000000 0.11456223 0.00000000)
		(3.68000000 0.11456223 0.00000000)
		(3.70000000 0.11456223 0.00000000)
		(3.72000000 0.11456223 0.00000000)
		(3.74000000 0.11456223 0.00000000)
		(3.76000000 0.11456223 0.00000000)
		(3.78000000 0.11456223 0.00000000)
		(3.80000000 0.11456223 0.00000000)
		(3.82000000 0.11456223 0.00000000)
		(3.84000000 0.11456223 0.00000000)
		(3.86000000 0.11456223 0.00000000)
		(3.88000000 0.11456223 0.00000000)
		(3.90000000 0.11456223 0.00000000)
		(3.92000000 0.11456223 0.00000000)
		(3.94000000 0.11456223 0.00000000)
		(3.96000000 0.11456223 0.00000000)
		(3.98000000 0.11456223 0.00000000)
		(4.00000000 0.11456223 0.00000000)
	)
	polyLine 4 5
	(
		(-1.00000000 0.24528540 0.10000000)
		(-0.98000000 0.24528540 0.10000000)
		(-0.96000000 0.24528540 0.10000000)
		(-0.94000000 0.24528540 0.10000000)
		(-0.92000000 0.24528540 0.10000000)
		(-0.90000000 0.24528540 0.10000000)
		(-0.88000000 0.24528540 0.10000000)
		(-0.86000000 0.24528540 0.10000000)
		(-0.84000000 0.24528540 0.10000000)
		(-0.82000000 0.24528540 0.10000000)
		(-0.80000000 0.24528540 0.10000000)
		(-0.78000000 0.24528540 0.10000000)
		(-0.76000000 0.24528540 0.10000000)
		(-0.74000000 0.24528540 0.10000000)
		(-0.72000000 0.24528540 0.10000000)
		(-0.70000000 0.24528540 0.10000000)
		(-0.68000000 0.24528540 0.10000000)
		(-0.66000000 0.24528540 0.10000000)
		(-0.64000000 0.24528540 0.10000000)
		(-0.62000000 0.24528540 0.10000000)
		(-0.60000000 0.24528540 0.10000000)
		(-0.58000000 0.24528540 0.10000000)
		(-0.56000000 0.24528540 0.10000000)
		(-0.54000000 0.24528540 0.10000000)
		(-0.52000000 0.24528540 0.10000000)
		(-0.50000000 0.24528540 0.10000000)
		(-0.48000000 0.24528540 0.10000000)
		(-0.46000000 0.24528540 0.10000000)
		(-0.44000000 0.24528540 0.10000000)
		(-0.42000000 0.24528540 0.10000000)
		(-0.40000000 0.24528540 0.10000000)
		(-0.38000000 0.24528540 0.10000000)
		(-0.36000000 0.24528540 0.10000000)
		(-0.34000000 0.24528540 0.10000000)
		(-0.32000000 0.24528540 0.10000000)
		(-0.30000000 0.24528540 0.10000000)
		(-0.28000000 0.24528540 0.10000000)
		(-0.26000000 0.24528540 0.10000000)
		(-0.24000000 0.24528540 0.10000000)
		(-0.22000000 0.24528540 0.10000000)
		(-0.20000000 0.24528540 0.10000000)
		(-0.18000000 0.24528540 0.10000000)
		(-0.16000000 0.24528540 0.10000000)
		(-0.14000000 0.24528540 0.10000000)
		(-0.12000000 0.24528540 0.10000000)
		(-0.10000000 0.24528540 0.10000000)
		(-0.08162011 0.24493638 0.10000000)
		(-0.06324022 0.24388933 0.10000000)
		(-0.04486034 0.24214425 0.10000000)
		(-0.02648045 0.23970114 0.10000000)
		(-0.00810056 0.23656000 0.10000000)
		(0.01027933 0.23272082 0.10000000)
		(0.02865922 0.22818361 0.10000000)
		(0.04703911 0.22294837 0.10000000)
		(0.06541899 0.21701510 0.10000000)
		(0.08379888 0.21038380 0.10000000)
		(0.10055866 0.19963808 0.10000000)
		(0.11731844 0.18776296 0.10000000)
		(0.13407821 0.17482561 0.10000000)
		(0.15083799 0.16089922 0.10000000)
		(0.16759777 0.14606259 0.10000000)
		(0.18435754 0.13039964 0.10000000)
		(0.20111732 0.11399898 0.10000000)
		(0.21787709 0.09695340 0.10000000)
		(0.23463687 0.07935933 0.10000000)
		(0.25139665 0.06131630 0.10000000)
		(0.26815642 0.04292639 0.10000000)
		(0.28491620 0.02429364 0.10000000)
		(0.30167598 0.00552344 0.10000000)
		(0.31843575 -0.01327800 0.10000000)
		(0.33519553 -0.03200432 0.10000000)
		(0.35195531 -0.05054959 0.10000000)
		(0.36871508 -0.06880888 0.10000000)
		(0.38547486 -0.08667890 0.10000000)
		(0.40223464 -0.10405856 0.10000000)
		(0.41899441 -0.12084953 0.10000000)
		(0.43575419 -0.13695682 0.10000000)
		(0.45251397 -0.15228931 0.10000000)
		(0.46927374 -0.16676026 0.10000000)
		(0.48603352 -0.18028780 0.10000000)
		(0.50279330 -0.19279540 0.10000000)
		(0.51955307 -0.20421231 0.10000000)
		(0.53631285 -0.21447393 0.10000000)
		(0.55307263 -0.22352222 0.10000000)
		(0.56983240 -0.23130599 0.10000000)
		(0.58659218 -0.23778119 0.10000000)
		(0.60335196 -0.24291120 0.10000000)
		(0.62011173 -0.24666699 0.10000000)
		(0.63687151 -0.24902733 0.10000000)
		(0.65363128 -0.24997885 0.10000000)
		(0.67039106 -0.24951617 0.10000000)
		(0.68715084 -0.24764191 0.10000000)
		(0.70391061 -0.24436668 0.10000000)
		(0.72067039 -0.23970900 0.10000000)
		(0.73743017 -0.23369522 0.10000000)
		(0.75418994 -0.22635936 0.10000000)
		(0.77094972 -0.21774293 0.10000000)
		(0.78770950 -0.20789466 0.10000000)
		(0.80446927 -0.19687028 0.10000000)
		(0.82122905 -0.18473216 0.10000000)
		(0.83798883 -0.17154895 0.10000000)
		(0.85474860 -0.15739524 0.10000000)
		(0.87150838 -0.14235111 0.10000000)
		(0.88826816 -0.12650166 0.10000000)
		(0.90502793 -0.10993655 0.10000000)
		(0.92178771 -0.09274951 0.10000000)
		(0.93854749 -0.07503775 0.10000000)
		(0.95530726 -0.05690149 0.10000000)
		(0.97206704 -0.03844332 0.10000000)
		(0.98882682 -0.01976766 0.10000000)
		(1.00558659 -0.00098018 0.10000000)
		(1.02234637 0.01781285 0.10000000)
		(1.03910615 0.03650511 0.10000000)
		(1.05586592 0.05499085 0.10000000)
		(1.07262570 0.07316549 0.10000000)
		(1.08938547 0.09092622 0.10000000)
		(1.10614525 0.10817255 0.10000000)
		(1.12290503 0.12480692 0.10000000)
		(1.13966480 0.14073522 0.10000000)
		(1.15642458 0.15586735 0.10000000)
		(1.17318436 0.17011769 0.10000000)
		(1.18994413 0.18340563 0.10000000)
		(1.20670391 0.19565600 0.10000000)
		(1.22346369 0.20679948 0.10000000)
		(1.24022346 0.21677305 0.10000000)
		(1.25698324 0.22552028 0.10000000)
		(1.27374302 0.23299167 0.10000000)
		(1.29050279 0.23914497 0.10000000)
		(1.30726257 0.24394536 0.10000000)
		(1.32402235 0.24736569 0.10000000)
		(1.34078212 0.24938660 0.10000000)
		(1.35754190 0.24999666 0.10000000)
		(1.37430168 0.24919243 0.10000000)
		(1.39106145 0.24697845 0.10000000)
		(1.40782123 0.24336724 0.10000000)
		(1.42458101 0.23837924 0.10000000)
		(1.44134078 0.23204267 0.10000000)
		(1.45810056 0.22439337 0.10000000)
		(1.47486034 0.21547461 0.10000000)
		(1.49162011 0.20533686 0.10000000)
		(1.50837989 0.19403746 0.10000000)
		(1.52513966 0.18164033 0.10000000)
		(1.54189944 0.16821562 0.10000000)
		(1.55865922 0.15383927 0.10000000)
		(1.57541899 0.13859261 0.10000000)
		(1.59217877 0.12256189 0.10000000)
		(1.60893855 0.10583781 0.10000000)
		(1.62569832 0.08851498 0.10000000)
		(1.64245810 0.07069139 0.10000000)
		(1.65921788 0.05246788 0.10000000)
		(1.67597765 0.03394754 0.10000000)
		(1.69273743 0.01523516 0.10000000)
		(1.70949721 -0.00356341 0.10000000)
		(1.72625698 -0.02234183 0.10000000)
		(1.74301676 -0.04099385 0.10000000)
		(1.75977654 -0.05941395 0.10000000)
		(1.77653631 -0.07749794 0.10000000)
		(1.79329609 -0.09514350 0.10000000)
		(1.81005587 -0.11225081 0.10000000)
		(1.82681564 -0.12872308 0.10000000)
		(1.84357542 -0.14446714 0.10000000)
		(1.86033520 -0.15939390 0.10000000)
		(1.87709497 -0.17341893 0.10000000)
		(1.89385475 -0.18646288 0.10000000)
		(1.91061453 -0.19845196 0.10000000)
		(1.92737430 -0.20931835 0.10000000)
		(1.94413408 -0.21900057 0.10000000)
		(1.96089385 -0.22744384 0.10000000)
		(1.97765363 -0.23460039 0.10000000)
		(1.99441341 -0.24042976 0.10000000)
		(2.01117318 -0.24489894 0.10000000)
		(2.02793296 -0.24798267 0.10000000)
		(2.04469274 -0.24966349 0.10000000)
		(2.06145251 -0.24993190 0.10000000)
		(2.07821229 -0.24878638 0.10000000)
		(2.09497207 -0.24623340 0.10000000)
		(2.11173184 -0.24228742 0.10000000)
		(2.12849162 -0.23697075 0.10000000)
		(2.14525140 -0.23031347 0.10000000)
		(2.16201117 -0.22235325 0.10000000)
		(2.17877095 -0.21313512 0.10000000)
		(2.19553073 -0.20271122 0.10000000)
		(2.21229050 -0.19114054 0.10000000)
		(2.22905028 -0.17848851 0.10000000)
		(2.24581006 -0.16482674 0.10000000)
		(2.26256983 -0.15023249 0.10000000)
		(2.27932961 -0.13478833 0.10000000)
		(2.29608939 -0.11858165 0.10000000)
		(2.31284916 -0.10170411 0.10000000)
		(2.32960894 -0.08425121 0.10000000)
		(2.34636872 -0.06632167 0.10000000)
		(2.36312849 -0.04801694 0.10000000)
		(2.37988827 -0.02944056 0.10000000)
		(2.39664804 -0.01069763 0.10000000)
		(2.41340782 0.00810583 0.10000000)
		(2.43016760 0.02686342 0.10000000)
		(2.44692737 0.04546904 0.10000000)
		(2.46368715 0.06381743 0.10000000)
		(2.48044693 0.08180479 0.10000000)
		(2.49720670 0.09932936 0.10000000)
		(2.51396648 0.11629199 0.10000000)
		(2.53072626 0.13259673 0.10000000)
		(2.54748603 0.14815133 0.10000000)
		(2.56424581 0.16286780 0.10000000)
		(2.58100559 0.17666289 0.10000000)
		(2.59776536 0.18945854 0.10000000)
		(2.61452514 0.20118238 0.10000000)
		(2.63128492 0.21176807 0.10000000)
		(2.64804469 0.22115574 0.10000000)
		(2.66480447 0.22929227 0.10000000)
		(2.68156425 0.23613163 0.10000000)
		(2.69832402 0.24163513 0.10000000)
		(2.71508380 0.24577163 0.10000000)
		(2.73184358 0.24851774 0.10000000)
		(2.74860335 0.24985792 0.10000000)
		(2.76536313 0.24978458 0.10000000)
		(2.78212291 0.24829814 0.10000000)
		(2.79888268 0.24540702 0.10000000)
		(2.81564246 0.24112756 0.10000000)
		(2.83240223 0.23548398 0.10000000)
		(2.84916201 0.22850820 0.10000000)
		(2.86592179 0.22023969 0.10000000)
		(2.88268156 0.21072523 0.10000000)
		(2.89944134 0.20001863 0.10000000)
		(2.91620112 0.18818048 0.10000000)
		(2.93296089 0.17527774 0.10000000)
		(2.95166480 0.16374179 0.10000000)
		(2.97036872 0.15342015 0.10000000)
		(2.98907263 0.14431283 0.10000000)
		(3.00777654 0.13641981 0.10000000)
		(3.02648045 0.12974111 0.10000000)
		(3.04518436 0.12427671 0.10000000)
		(3.06388827 0.12002662 0.10000000)
		(3.08259218 0.11699085 0.10000000)
		(3.10129609 0.11516938 0.10000000)
		(3.12000000 0.11456223 0.10000000)
		(3.14000000 0.11456223 0.10000000)
		(3.16000000 0.11456223 0.10000000)
		(3.18000000 0.11456223 0.10000000)
		(3.20000000 0.11456223 0.10000000)
		(3.22000000 0.11456223 0.10000000)
		(3.24000000 0.11456223 0.10000000)
		(3.26000000 0.11456223 0.10000000)
		(3.28000000 0.11456223 0.10000000)
		(3.30000000 0.11456223 0.10000000)
		(3.32000000 0.11456223 0.10000000)
		(3.34000000 0.11456223 0.10000000)
		(3.36000000 0.11456223 0.10000000)
		(3.38000000 0.11456223 0.10000000)
		(3.40000000 0.11456223 0.10000000)
		(3.42000000 0.11456223 0.10000000)
		(3.44000000 0.11456223 0.10000000)
		(3.46000000 0.11456223 0.10000000)
		(3.48000000 0.11456223 0.10000000)
		(3.50000000 0.11456223 0.10000000)
		(3.52000000 0.11456223 0.10000000)
		(3.54000000 0.11456223 0.10000000)
		(3.56000000 0.11456223 0.10000000)
		(3.58000000 0.11456223 0.10000000)
		(3.60000000 0.11456223 0.10000000)
		(3.62000000 0.11456223 0.10000000)
		(3.64000000 0.11456223 0.10000000)
		(3.66000000 0.11456223 0.10000000)
		(3.68000000 0.11456223 0.10000000)
		(3.70000000 0.11456223 0.10000000)
		(3.72000000 0.11456223 0.10000000)
		(3.74000000 0.11456223 0.10000000)
		(3.76000000 0.11456223 0.10000000)
		(3.78000000 0.11456223 0.10000000)
		(3.80000000 0.11456223 0.10000000)
		(3.82000000 0.11456223 0.10000000)
		(3.84000000 0.11456223 0.10000000)
		(3.86000000 0.11456223 0.10000000)
		(3.88000000 0.11456223 0.10000000)
		(3.90000000 0.11456223 0.10000000)
		(3.92000000 0.11456223 0.10000000)
		(3.94000000 0.11456223 0.10000000)
		(3.96000000 0.11456223 0.10000000)
		(3.98000000 0.11456223 0.10000000)
		(4.00000000 0.11456223 0.10000000)
	)
	polyLine 3 2
	(
		(-1.00000000 0.74528540 0.00000000)
		(-0.98000000 0.74560974 0.00000000)
		(-0.96000000 0.74593409 0.00000000)
		(-0.94000000 0.74625844 0.00000000)
		(-0.92000000 0.74658278 0.00000000)
		(-0.90000000 0.74690713 0.00000000)
		(-0.88000000 0.74723148 0.00000000)
		(-0.86000000 0.74755582 0.00000000)
		(-0.84000000 0.74788017 0.00000000)
		(-0.82000000 0.74820452 0.00000000)
		(-0.80000000 0.74852886 0.00000000)
		(-0.78000000 0.74885321 0.00000000)
		(-0.76000000 0.74917756 0.00000000)
		(-0.74000000 0.74950190 0.00000000)
		(-0.72000000 0.74982625 0.00000000)
		(-0.70000000 0.75015060 0.00000000)
		(-0.68000000 0.75047494 0.00000000)
		(-0.66000000 0.75079929 0.00000000)
		(-0.64000000 0.75112364 0.00000000)
		(-0.62000000 0.75144798 0.00000000)
		(-0.60000000 0.75177233 0.00000000)
		(-0.58000000 0.75209667 0.00000000)
		(-0.56000000 0.75242102 0.00000000)
		(-0.54000000 0.75274537 0.00000000)
		(-0.52000000 0.75306971 0.00000000)
		(-0.50000000 0.75339406 0.00000000)
		(-0.48000000 0.75371841 0.00000000)
		(-0.46000000 0.75404275 0.00000000)
		(-0.44000000 0.75436710 0.00000000)
		(-0.42000000 0.75469145 0.00000000)
		(-0.40000000 0.75501579 0.00000000)
		(-0.38000000 0.75534014 0.00000000)
		(-0.36000000 0.75566449 0.00000000)
		(-0.34000000 0.75598883 0.00000000)
		(-0.32000000 0.75631318 0.00000000)
		(-0.30000000 0.75663753 0.00000000)
		(-0.28000000 0.75696187 0.00000000)
		(-0.26000000 0.75728622 0.00000000)
		(-0.24000000 0.75761057 0.00000000)
		(-0.22000000 0.75793491 0.00000000)
		(-0.20000000 0.75825926 0.00000000)
		(-0.18000000 0.75858361 0.00000000)
		(-0.16000000 0.75890795 0.00000000)
		(-0.14000000 0.75923230 0.00000000)
		(-0.12000000 0.75955664 0.00000000)
		(-0.10000000 0.75988099 0.00000000)
		(-0.08162011 0.76035648 0.00000000)
		(-0.06324022 0.75992929 0.00000000)
		(-0.04486034 0.75859942 0.00000000)
		(-0.02648045 0.75636687 0.00000000)
		(-0.00810056 0.75323165 0.00000000)
		(0.01027933 0.74919375 0.00000000)
		(0.02865922 0.74425317 0.00000000)
		(0.04703911 0.73840992 0.00000000)
		(0.06541899 0.73166398 0.00000000)
		(0.08379888 0.72401537 0.00000000)
		(0.10055866 0.71257340 0.00000000)
		(0.11731844 0.69992884 0.00000000)
		(0.13407821 0.68615323 0.00000000)
		(0.15083799 0.67132450 0.00000000)
		(0.16759777 0.65552654 0.00000000)
		(0.18435754 0.63884873 0.00000000)
		(0.20111732 0.62138541 0.00000000)
		(0.21787709 0.60323538 0.00000000)
		(0.23463687 0.58450132 0.00000000)
		(0.25139665 0.56528922 0.00000000)
		(0.26815642 0.54570776 0.00000000)
		(0.28491620 0.52586771 0.00000000)
		(0.30167598 0.50588133 0.00000000)
		(0.31843575 0.48586167 0.00000000)
		(0.33519553 0.46592200 0.00000000)
		(0.35195531 0.44617511 0.00000000)
		(0.36871508 0.42673273 0.00000000)
		(0.38547486 0.40770484 0.00000000)
		(0.40223464 0.38919909 0.00000000)
		(0.41899441 0.37132017 0.00000000)
		(0.43575419 0.35416923 0.00000000)
		(0.45251397 0.33784328 0.00000000)
		(0.46927374 0.32243471 0.00000000)
		(0.48603352 0.30803067 0.00000000)
		(0.50279330 0.29471265 0.00000000)
		(0.51955307 0.28255599 0.00000000)
		(0.53631285 0.27162948 0.00000000)
		(0.55307263 0.26199492 0.00000000)
		(0.56983240 0.25370682 0.00000000)
		(0.58659218 0.24681206 0.00000000)
		(0.60335196 0.24134966 0.00000000)
		(0.62011173 0.23735051 0.00000000)
		(0.63687151 0.23483724 0.00000000)
		(0.65363128 0.23382407 0.00000000)
		(0.67039106 0.23431672 0.00000000)
		(0.68715084 0.23631242 0.00000000)
		(0.70391061 0.23979987 0.00000000)
		(0.72067039 0.24475934 0.00000000)
		(0.73743017 0.25116278 0.00000000)
		(0.75418994 0.25897395 0.00000000)
		(0.77094972 0.26814868 0.00000000)
		(0.78770950 0.27863505 0.00000000)
		(0.80446927 0.29037374 0.00000000)
		(0.82122905 0.30329834 0.00000000)
		(0.83798883 0.31733574 0.00000000)
		(0.85474860 0.33240652 0.00000000)
		(0.87150838 0.34842542 0.00000000)
		(0.88826816 0.36530182 0.00000000)
		(0.90502793 0.38294024 0.00000000)
		(0.92178771 0.40124090 0.00000000)
		(0.93854749 0.42010027 0.00000000)
		(0.95530726 0.43941165 0.00000000)
		(0.97206704 0.45906579 0.00000000)
		(0.98882682 0.47895151 0.00000000)
		(1.00558659 0.49895631 0.00000000)
		(1.02234637 0.51896702 0.00000000)
		(1.03910615 0.53887042 0.00000000)
		(1.05586592 0.55855392 0.00000000)
		(1.07262570 0.57790617 0.00000000)
		(1.08938547 0.59681768 0.00000000)
		(1.10614525 0.61518146 0.00000000)
		(1.12290503 0.63289364 0.00000000)
		(1.13966480 0.64985399 0.00000000)
		(1.15642458 0.66596659 0.00000000)
		(1.17318436 0.68114027 0.00000000)
		(1.18994413 0.69528918 0.00000000)
		(1.20670391 0.70833330 0.00000000)
		(1.22346369 0.72019881 0.00000000)
		(1.24022346 0.73081861 0.00000000)
		(1.25698324 0.74013260 0.00000000)
		(1.27374302 0.74808809 0.00000000)
		(1.29050279 0.75464009 0.00000000)
		(1.30726257 0.75975151 0.00000000)
		(1.32402235 0.76339345 0.00000000)
		(1.34078212 0.76554531 0.00000000)
		(1.35754190 0.76619490 0.00000000)
		(1.37430168 0.76533856 0.00000000)
		(1.39106145 0.76298113 0.00000000)
		(1.40782123 0.75913594 0.00000000)
		(1.42458101 0.75382475 0.00000000)
		(1.44134078 0.74707760 0.00000000)
		(1.45810056 0.73893267 0.00000000)
		(1.47486034 0.72943603 0.00000000)
		(1.49162011 0.71864142 0.00000000)
		(1.50837989 0.70660988 0.00000000)
		(1.52513966 0.69340951 0.00000000)
		(1.54189944 0.67911496 0.00000000)
		(1.55865922 0.66380711 0.00000000)
		(1.57541899 0.64757256 0.00000000)
		(1.59217877 0.63050315 0.00000000)
		(1.60893855 0.61269545 0.00000000)
		(1.62569832 0.59425020 0.00000000)
		(1.64245810 0.57527175 0.00000000)
		(1.65921788 0.55586747 0.00000000)
		(1.67597765 0.53614714 0.00000000)
		(1.69273743 0.51622231 0.00000000)
		(1.70949721 0.49620570 0.00000000)
		(1.72625698 0.47621056 0.00000000)
		(1.74301676 0.45635000 0.00000000)
		(1.75977654 0.43673639 0.00000000)
		(1.77653631 0.41748067 0.00000000)
		(1.79329609 0.39869179 0.00000000)
		(1.81005587 0.38047603 0.00000000)
		(1.82681564 0.36293646 0.00000000)
		(1.84357542 0.34617228 0.00000000)
		(1.86033520 0.33027836 0.00000000)
		(1.87709497 0.31534459 0.00000000)
		(1.89385475 0.30145547 0.00000000)
		(1.91061453 0.28868957 0.00000000)
		(1.92737430 0.27711911 0.00000000)
		(1.94413408 0.26680955 0.00000000)
		(1.96089385 0.25781921 0.00000000)
		(1.97765363 0.25019895 0.00000000)
		(1.99441341 0.24399188 0.00000000)
		(2.01117318 0.23923312 0.00000000)
		(2.02793296 0.23594959 0.00000000)
		(2.04469274 0.23415986 0.00000000)
		(2.06145251 0.23387406 0.00000000)
		(2.07821229 0.23509380 0.00000000)
		(2.09497207 0.23781219 0.00000000)
		(2.11173184 0.24201385 0.00000000)
		(2.12849162 0.24767501 0.00000000)
		(2.14525140 0.25476364 0.00000000)
		(2.16201117 0.26323963 0.00000000)
		(2.17877095 0.27305504 0.00000000)
		(2.19553073 0.28415434 0.00000000)
		(2.21229050 0.29647474 0.00000000)
		(2.22905028 0.30994653 0.00000000)
		(2.24581006 0.32449351 0.00000000)
		(2.26256983 0.34003338 0.00000000)
		(2.27932961 0.35647821 0.00000000)
		(2.29608939 0.37373500 0.00000000)
		(2.31284916 0.39170609 0.00000000)
		(2.32960894 0.41028983 0.00000000)
		(2.34636872 0.42938109 0.00000000)
		(2.36312849 0.44887186 0.00000000)
		(2.37988827 0.46865187 0.00000000)
		(2.39664804 0.48860923 0.00000000)
		(2.41340782 0.50863103 0.00000000)
		(2.43016760 0.52860400 0.00000000)
		(2.44692737 0.54841515 0.00000000)
		(2.46368715 0.56795241 0.00000000)
		(2.48044693 0.58710524 0.00000000)
		(2.49720670 0.60576529 0.00000000)
		(2.51396648 0.62382699 0.00000000)
		(2.53072626 0.64118818 0.00000000)
		(2.54748603 0.65775062 0.00000000)
		(2.56424581 0.67342063 0.00000000)