/*--------------------------------*- C++ -*----------------------------------*\\
/*--------------------------------*- C++ -*----------------------------------*\\
| =========                 |                                                 |
| \\\\      /  F ield         | OpenFOAM: The Open Source CFD Toolbox           |
|  \\\\    /   O peration     | Version:  v2012                                 |
|   \\\\  /    A nd           | Website:  www.openfoam.com                      |
|    \\\\/     M anipulation  |                                                 |
\\*---------------------------------------------------------------------------*/
FoamFile
{
    version     2.0;
    format      ascii;
    class       dictionary;
    object      blockMeshDict;
}
// * * * * * * * * * * * * * * * * * * * * * * * * * * * * * * * * * * * * * //

scale   0.01;

xmin -1;
xmax 5;
ymin 0;
ymax 0.5;
zmin 0;
zmax 0.1;

vertices
(
    (-1.00000000 -0.04702377 0.00000000)
    (4.00000000 0.19013532 0.00000000)
    (4.00000000 0.69013532 0.00000000)
    (-1.00000000 0.45297623 0.00000000)
    (-1.00000000 -0.04702377 0.10000000)
    (4.00000000 0.19013532 0.10000000)
    (4.00000000 0.69013532 0.10000000)
    (-1.00000000 0.45297623 0.10000000)
);

blocks
(
    hex (0 1 2 3 4 5 6 7) (200 20 1) simpleGrading (1 1 1)
);

edges
(
	polyLine 0 1
	(
		(-1.00000000 -0.04702377 0.00000000)
		(-0.98000000 -0.04702377 0.00000000)
		(-0.96000000 -0.04702377 0.00000000)
		(-0.94000000 -0.04702377 0.00000000)
		(-0.92000000 -0.04702377 0.00000000)
		(-0.90000000 -0.04702377 0.00000000)
		(-0.88000000 -0.04702377 0.00000000)
		(-0.86000000 -0.04702377 0.00000000)
		(-0.84000000 -0.04702377 0.00000000)
		(-0.82000000 -0.04702377 0.00000000)
		(-0.80000000 -0.04702377 0.00000000)
		(-0.78000000 -0.04702377 0.00000000)
		(-0.76000000 -0.04702377 0.00000000)
		(-0.74000000 -0.04702377 0.00000000)
		(-0.72000000 -0.04702377 0.00000000)
		(-0.70000000 -0.04702377 0.00000000)
		(-0.68000000 -0.04702377 0.00000000)
		(-0.66000000 -0.04702377 0.00000000)
		(-0.64000000 -0.04702377 0.00000000)
		(-0.62000000 -0.04702377 0.00000000)
		(-0.60000000 -0.04702377 0.00000000)
		(-0.58000000 -0.04702377 0.00000000)
		(-0.56000000 -0.04702377 0.00000000)
		(-0.54000000 -0.04702377 0.00000000)
		(-0.52000000 -0.04702377 0.00000000)
		(-0.50000000 -0.04702377 0.00000000)
		(-0.48000000 -0.04702377 0.00000000)
		(-0.46000000 -0.04702377 0.00000000)
		(-0.44000000 -0.04702377 0.00000000)
		(-0.42000000 -0.04702377 0.00000000)
		(-0.40000000 -0.04702377 0.00000000)
		(-0.38000000 -0.04702377 0.00000000)
		(-0.36000000 -0.04702377 0.00000000)
		(-0.34000000 -0.04702377 0.00000000)
		(-0.32000000 -0.04702377 0.00000000)
		(-0.30000000 -0.04702377 0.00000000)
		(-0.28000000 -0.04702377 0.00000000)
		(-0.26000000 -0.04702377 0.00000000)
		(-0.24000000 -0.04702377 0.00000000)
		(-0.22000000 -0.04702377 0.00000000)
		(-0.20000000 -0.04702377 0.00000000)
		(-0.18000000 -0.04702377 0.00000000)
		(-0.16000000 -0.04702377 0.00000000)
		(-0.14000000 -0.04702377 0.00000000)
		(-0.12000000 -0.04702377 0.00000000)
		(-0.10000000 -0.04702377 0.00000000)
		(-0.08162011 -0.04598190 0.00000000)
		(-0.06324022 -0.04285628 0.00000000)
		(-0.04486034 -0.03764691 0.00000000)
		(-0.02648045 -0.03035380 0.00000000)
		(-0.00810056 -0.02097694 0.00000000)
		(0.01027933 -0.00951633 0.00000000)
		(0.02865922 0.00402802 0.00000000)
		(0.04703911 0.01965612 0.00000000)
		(0.06541899 0.03736796 0.00000000)
		(0.08379888 0.05716355 0.00000000)
		(0.10055866 0.07737770 0.00000000)
		(0.11731844 0.09704640 0.00000000)
		(0.13407821 0.11603101 0.00000000)
		(0.15083799 0.13419771 0.00000000)
		(0.16759777 0.15141844 0.00000000)
		(0.18435754 0.16757181 0.00000000)
		(0.20111732 0.18254396 0.00000000)
		(0.21787709 0.19622934 0.00000000)
		(0.23463687 0.20853148 0.00000000)
		(0.25139665 0.21936367 0.00000000)
		(0.26815642 0.22864955 0.00000000)
		(0.28491620 0.23632365 0.00000000)
		(0.30167598 0.24233190 0.00000000)
		(0.31843575 0.24663193 0.00000000)
		(0.33519553 0.24919343 0.00000000)
		(0.35195531 0.24999835 0.00000000)
		(0.36871508 0.24904101 0.00000000)
		(0.38547486 0.24632816 0.00000000)
		(0.40223464 0.24187893 0.00000000)
		(0.41899441 0.23572467 0.00000000)
		(0.43575419 0.22790877 0.00000000)
		(0.45251397 0.21848633 0.00000000)
		(0.46927374 0.20752375 0.00000000)
		(0.48603352 0.19509833 0.00000000)
		(0.50279330 0.18129764 0.00000000)
		(0.51955307 0.16621898 0.00000000)
		(0.53631285 0.14996862 0.00000000)
		(0.55307263 0.13266112 0.00000000)
		(0.56983240 0.11441849 0.00000000)
		(0.58659218 0.09536930 0.00000000)
		(0.60335196 0.07564786 0.00000000)
		(0.62011173 0.05539316 0.00000000)
		(0.63687151 0.03474800 0.00000000)
		(0.65363128 0.01385789 0.00000000)
		(0.67039106 -0.00712990 0.00000000)
		(0.68715084 -0.02806743 0.00000000)
		(0.70391061 -0.04880711 0.00000000)
		(0.72067039 -0.06920275 0.00000000)
		(0.73743017 -0.08911057 0.00000000)
		(0.75418994 -0.10839025 0.00000000)
		(0.77094972 -0.12690587 0.00000000)
		(0.78770950 -0.14452692 0.00000000)
		(0.80446927 -0.16112920 0.00000000)
		(0.82122905 -0.17659566 0.00000000)
		(0.83798883 -0.19081728 0.00000000)
		(0.85474860 -0.20369382 0.00000000)
		(0.87150838 -0.21513451 0.00000000)
		(0.88826816 -0.22505869 0.00000000)
		(0.90502793 -0.23339642 0.00000000)
		(0.92178771 -0.24008892 0.00000000)
		(0.93854749 -0.24508902 0.00000000)
		(0.95530726 -0.24836146 0.00000000)
		(0.97206704 -0.24988319 0.00000000)
		(0.98882682 -0.24964347 0.00000000)
		(1.00558659 -0.24764399 0.00000000)
		(1.02234637 -0.24389885 0.00000000)
		(1.03910615 -0.23843445 0.00000000)
		(1.05586592 -0.23128931 0.00000000)
		(1.07262570 -0.22251379 0.00000000)
		(1.08938547 -0.21216976 0.00000000)
		(1.10614525 -0.20033012 0.00000000)
		(1.12290503 -0.18707834 0.00000000)
		(1.13966480 -0.17250783 0.00000000)
		(1.15642458 -0.15672131 0.00000000)
		(1.17318436 -0.13983004 0.00000000)
		(1.18994413 -0.12195309 0.00000000)
		(1.20670391 -0.10321649 0.00000000)
		(1.22346369 -0.08375231 0.00000000)
		(1.24022346 -0.06369776 0.00000000)
		(1.25698324 -0.04319419 0.00000000)
		(1.27374302 -0.02238615 0.00000000)
		(1.29050279 -0.00142030 0.00000000)
		(1.30726257 0.01955556 0.00000000)
		(1.32402235 0.04039357 0.00000000)
		(1.34078212 0.06094685 0.00000000)
		(1.35754190 0.08107050 0.00000000)
		(1.37430168 0.10062268 0.00000000)
		(1.39106145 0.11946557 0.00000000)
		(1.40782123 0.13746633 0.00000000)
		(1.42458101 0.15449808 0.00000000)
		(1.44134078 0.17044077 0.00000000)
		(1.45810056 0.18518200 0.00000000)
		(1.47486034 0.19861787 0.00000000)
		(1.49162011 0.21065367 0.00000000)
		(1.50837989 0.22120456 0.00000000)
		(1.52513966 0.23019615 0.00000000)
		(1.54189944 0.23756508 0.00000000)
		(1.55865922 0.24325939 0.00000000)
		(1.57541899 0.24723895 0.00000000)
		(1.59217877 0.24947570 0.00000000)
		(1.60893855 0.24995388 0.00000000)
		(1.62569832 0.24867012 0.00000000)
		(1.64245810 0.24563346 0.00000000)
		(1.65921788 0.24086531 0.00000000)
		(1.67597765 0.23439928 0.00000000)
		(1.69273743 0.22628095 0.00000000)
		(1.70949721 0.21656756 0.00000000)
		(1.72625698 0.20532756 0.00000000)
		(1.74301676 0.19264019 0.00000000)
		(1.75977654 0.17859489 0.00000000)
		(1.77653631 0.16329065 0.00000000)
		(1.79329609 0.14683537 0.00000000)
		(1.81005587 0.12934504 0.00000000)
		(1.82681564 0.11094294 0.00000000)
		(1.84357542 0.09175879 0.00000000)
		(1.86033520 0.07192784 0.00000000)
		(1.87709497 0.05158985 0.00000000)
		(1.89385475 0.03088821 0.00000000)
		(1.91061453 0.00996883 0.00000000)
		(1.92737430 -0.01102082 0.00000000)
		(1.94413408 -0.03193278 0.00000000)
		(1.96089385 -0.05261964 0.00000000)
		(1.97765363 -0.07293559 0.00000000)
		(1.99441341 -0.09273741 0.00000000)
		(2.01117318 -0.11188551 0.00000000)
		(2.02793296 -0.13024492 0.00000000)
		(2.04469274 -0.14768623 0.00000000)
		(2.06145251 -0.16408649 0.00000000)
		(2.07821229 -0.17933009 0.00000000)
		(2.09497207 -0.19330957 0.00000000)
		(2.11173184 -0.20592640 0.00000000)
		(2.12849162 -0.21709165 0.00000000)
		(2.14525140 -0.22672659 0.00000000)
		(2.16201117 -0.23476332 0.00000000)
		(2.17877095 -0.24114519 0.00000000)
		(2.19553073 -0.24582721 0.00000000)
		(2.21229050 -0.24877637 0.00000000)
		(2.22905028 -0.24997189 0.00000000)
		(2.24581006 -0.24940534 0.00000000)
		(2.26256983 -0.24708071 0.00000000)
		(2.27932961 -0.24301439 0.00000000)
		(2.29608939 -0.23723504 0.00000000)
		(2.31284916 -0.22978340 0.00000000)
		(2.32960894 -0.22071200 0.00000000)
		(2.34636872 -0.21008479 0.00000000)
		(2.36312849 -0.19797668 0.00000000)
		(2.37988827 -0.18447301 0.00000000)
		(2.39664804 -0.16966897 0.00000000)
		(2.41340782 -0.15366893 0.00000000)
		(2.43016760 -0.13658566 0.00000000)
		(2.44692737 -0.11853959 0.00000000)
		(2.46368715 -0.09965793 0.00000000)
		(2.48044693 -0.08007377 0.00000000)
		(2.49720670 -0.05992516 0.00000000)
		(2.51396648 -0.03935414 0.00000000)
		(2.53072626 -0.01850570 0.00000000)
		(2.54748603 0.00247318 0.00000000)
		(2.56424581 0.02343463 0.00000000)
		(2.58100559 0.04423089 0.00000000)
		(2.59776536 0.06471536 0.00000000)
		(2.61452514 0.08474364 0.00000000)
		(2.63128492 0.10417456 0.00000000)
		(2.64804469 0.12287115 0.00000000)
		(2.66480447 0.14070161 0.00000000)
		(2.68156425 0.15754025 0.00000000)
		(2.69832402 0.17326838 0.00000000)
		(2.71508380 0.18777513 0.00000000)
		(2.73184358 0.20095823 0.00000000)
		(2.74860335 0.21272477 0.00000000)
		(2.76536313 0.22299179 0.00000000)
		(2.78212291 0.23168693 0.00000000)
		(2.79888268 0.23874889 0.00000000)
		(2.81564246 0.24412788 0.00000000)
		(2.83240223 0.24778601 0.00000000)
		(2.84916201 0.24969747 0.00000000)
		(2.86592179 0.24984879 0.00000000)
		(2.88268156 0.24823891 0.00000000)
		(2.89944134 0.24487917 0.00000000)
		(2.91620112 0.23979327 0.00000000)
		(2.93296089 0.23301704 0.00000000)
		(2.95166480 0.22486951 0.00000000)
		(2.97036872 0.21757962 0.00000000)
		(2.98907263 0.21114736 0.00000000)
		(3.00777654 0.20557274 0.00000000)
		(3.02648045 0.20085575 0.00000000)
		(3.04518436 0.19699640 0.00000000)
		(3.06388827 0.19399468 0.00000000)
		(3.08259218 0.19185059 0.00000000)
		(3.10129609 0.19056414 0.00000000)
		(3.12000000 0.19013532 0.00000000)
		(3.14000000 0.19013532 0.00000000)
		(3.16000000 0.19013532 0.00000000)
		(3.18000000 0.19013532 0.00000000)
		(3.20000000 0.19013532 0.00000000)
		(3.22000000 0.19013532 0.00000000)
		(3.24000000 0.19013532 0.00000000)
		(3.26000000 0.19013532 0.00000000)
		(3.28000000 0.19013532 0.00000000)
		(3.30000000 0.19013532 0.00000000)
		(3.32000000 0.19013532 0.00000000)
		(3.34000000 0.19013532 0.00000000)
		(3.36000000 0.19013532 0.00000000)
		(3.38000000 0.19013532 0.00000000)
		(3.40000000 0.19013532 0.00000000)
		(3.42000000 0.19013532 0.00000000)
		(3.44000000 0.19013532 0.00000000)
		(3.46000000 0.19013532 0.00000000)
		(3.48000000 0.19013532 0.00000000)
		(3.50000000 0.19013532 0.00000000)
		(3.52000000 0.19013532 0.00000000)
		(3.54000000 0.19013532 0.00000000)
		(3.56000000 0.19013532 0.00000000)
		(3.58000000 0.19013532 0.00000000)
		(3.60000000 0.19013532 0.00000000)
		(3.62000000 0.19013532 0.00000000)
		(3.64000000 0.19013532 0.00000000)
		(3.66000000 0.19013532 0.00000000)
		(3.68000000 0.19013532 0.00000000)
		(3.70000000 0.19013532 0.00000000)
		(3.72000000 0.19013532 0.00000000)
		(3.74000000 0.19013532 0.00000000)
		(3.76000000 0.19013532 0.00000000)
		(3.78000000 0.19013532 0.00000000)
		(3.80000000 0.19013532 0.00000000)
		(3.82000000 0.19013532 0.00000000)
		(3.84000000 0.19013532 0.00000000)
		(3.86000000 0.19013532 0.00000000)
		(3.88000000 0.19013532 0.00000000)
		(3.90000000 0.19013532 0.00000000)
		(3.92000000 0.19013532 0.00000000)
		(3.94000000 0.19013532 0.00000000)
		(3.96000000 0.19013532 0.00000000)
		(3.98000000 0.19013532 0.00000000)
		(4.00000000 0.19013532 0.00000000)
	)
	polyLine 4 5
	(
		(-1.00000000 -0.04702377 0.10000000)
		(-0.98000000 -0.04702377 0.10000000)
		(-0.96000000 -0.04702377 0.10000000)
		(-0.94000000 -0.04702377 0.10000000)
		(-0.92000000 -0.04702377 0.10000000)
		(-0.90000000 -0.04702377 0.10000000)
		(-0.88000000 -0.04702377 0.10000000)
		(-0.86000000 -0.04702377 0.10000000)
		(-0.84000000 -0.04702377 0.10000000)
		(-0.82000000 -0.04702377 0.10000000)
		(-0.80000000 -0.04702377 0.10000000)
		(-0.78000000 -0.04702377 0.10000000)
		(-0.76000000 -0.04702377 0.10000000)
		(-0.74000000 -0.04702377 0.10000000)
		(-0.72000000 -0.04702377 0.10000000)
		(-0.70000000 -0.04702377 0.10000000)
		(-0.68000000 -0.04702377 0.10000000)
		(-0.66000000 -0.04702377 0.10000000)
		(-0.64000000 -0.04702377 0.10000000)
		(-0.62000000 -0.04702377 0.10000000)
		(-0.60000000 -0.04702377 0.10000000)
		(-0.58000000 -0.04702377 0.10000000)
		(-0.56000000 -0.04702377 0.10000000)
		(-0.54000000 -0.04702377 0.10000000)
		(-0.52000000 -0.04702377 0.10000000)
		(-0.50000000 -0.04702377 0.10000000)
		(-0.48000000 -0.04702377 0.10000000)
		(-0.46000000 -0.04702377 0.10000000)
		(-0.44000000 -0.04702377 0.10000000)
		(-0.42000000 -0.04702377 0.10000000)
		(-0.40000000 -0.04702377 0.10000000)
		(-0.38000000 -0.04702377 0.10000000)
		(-0.36000000 -0.04702377 0.10000000)
		(-0.34000000 -0.04702377 0.10000000)
		(-0.32000000 -0.04702377 0.10000000)
		(-0.30000000 -0.04702377 0.10000000)
		(-0.28000000 -0.04702377 0.10000000)
		(-0.26000000 -0.04702377 0.10000000)
		(-0.24000000 -0.04702377 0.10000000)
		(-0.22000000 -0.04702377 0.10000000)
		(-0.20000000 -0.04702377 0.10000000)
		(-0.18000000 -0.04702377 0.10000000)
		(-0.16000000 -0.04702377 0.10000000)
		(-0.14000000 -0.04702377 0.10000000)
		(-0.12000000 -0.04702377 0.10000000)
		(-0.10000000 -0.04702377 0.10000000)
		(-0.08162011 -0.04598190 0.10000000)
		(-0.06324022 -0.04285628 0.10000000)
		(-0.04486034 -0.03764691 0.10000000)
		(-0.02648045 -0.03035380 0.10000000)
		(-0.00810056 -0.02097694 0.10000000)
		(0.01027933 -0.00951633 0.10000000)
		(0.02865922 0.00402802 0.10000000)
		(0.04703911 0.01965612 0.10000000)
		(0.06541899 0.03736796 0.10000000)
		(0.08379888 0.05716355 0.10000000)
		(0.10055866 0.07737770 0.10000000)
		(0.11731844 0.09704640 0.10000000)
		(0.13407821 0.11603101 0.10000000)
		(0.15083799 0.13419771 0.10000000)
		(0.16759777 0.15141844 0.10000000)
		(0.18435754 0.16757181 0.10000000)
		(0.20111732 0.18254396 0.10000000)
		(0.21787709 0.19622934 0.10000000)
		(0.23463687 0.20853148 0.10000000)
		(0.25139665 0.21936367 0.10000000)
		(0.26815642 0.22864955 0.10000000)
		(0.28491620 0.23632365 0.10000000)
		(0.30167598 0.24233190 0.10000000)
		(0.31843575 0.24663193 0.10000000)
		(0.33519553 0.24919343 0.10000000)
		(0.35195531 0.24999835 0.10000000)
		(0.36871508 0.24904101 0.10000000)
		(0.38547486 0.24632816 0.10000000)
		(0.40223464 0.24187893 0.10000000)
		(0.41899441 0.23572467 0.10000000)
		(0.43575419 0.22790877 0.10000000)
		(0.45251397 0.21848633 0.10000000)
		(0.46927374 0.20752375 0.10000000)
		(0.48603352 0.19509833 0.10000000)
		(0.50279330 0.18129764 0.10000000)
		(0.51955307 0.16621898 0.10000000)
		(0.53631285 0.14996862 0.10000000)
		(0.55307263 0.13266112 0.10000000)
		(0.56983240 0.11441849 0.10000000)
		(0.58659218 0.09536930 0.10000000)
		(0.60335196 0.07564786 0.10000000)
		(0.62011173 0.05539316 0.10000000)
		(0.63687151 0.03474800 0.10000000)
		(0.65363128 0.01385789 0.10000000)
		(0.67039106 -0.00712990 0.10000000)
		(0.68715084 -0.02806743 0.10000000)
		(0.70391061 -0.04880711 0.10000000)
		(0.72067039 -0.06920275 0.10000000)
		(0.73743017 -0.08911057 0.10000000)
		(0.75418994 -0.10839025 0.10000000)
		(0.77094972 -0.12690587 0.10000000)
		(0.78770950 -0.14452692 0.10000000)
		(0.80446927 -0.16112920 0.10000000)
		(0.82122905 -0.17659566 0.10000000)
		(0.83798883 -0.19081728 0.10000000)
		(0.85474860 -0.20369382 0.10000000)
		(0.87150838 -0.21513451 0.10000000)
		(0.88826816 -0.22505869 0.10000000)
		(0.90502793 -0.23339642 0.10000000)
		(0.92178771 -0.24008892 0.10000000)
		(0.93854749 -0.24508902 0.10000000)
		(0.95530726 -0.24836146 0.10000000)
		(0.97206704 -0.24988319 0.10000000)
		(0.98882682 -0.24964347 0.10000000)
		(1.00558659 -0.24764399 0.10000000)
		(1.02234637 -0.24389885 0.10000000)
		(1.03910615 -0.23843445 0.10000000)
		(1.05586592 -0.23128931 0.10000000)
		(1.07262570 -0.22251379 0.10000000)
		(1.08938547 -0.21216976 0.10000000)
		(1.10614525 -0.20033012 0.10000000)
		(1.12290503 -0.18707834 0.10000000)
		(1.13966480 -0.17250783 0.10000000)
		(1.15642458 -0.15672131 0.10000000)
		(1.17318436 -0.13983004 0.10000000)
		(1.18994413 -0.12195309 0.10000000)
		(1.20670391 -0.10321649 0.10000000)
		(1.22346369 -0.08375231 0.10000000)
		(1.24022346 -0.06369776 0.10000000)
		(1.25698324 -0.04319419 0.10000000)
		(1.27374302 -0.02238615 0.10000000)
		(1.29050279 -0.00142030 0.10000000)
		(1.30726257 0.01955556 0.10000000)
		(1.32402235 0.04039357 0.10000000)
		(1.34078212 0.06094685 0.10000000)
		(1.35754190 0.08107050 0.10000000)
		(1.37430168 0.10062268 0.10000000)
		(1.39106145 0.11946557 0.10000000)
		(1.40782123 0.13746633 0.10000000)
		(1.42458101 0.15449808 0.10000000)
		(1.44134078 0.17044077 0.10000000)
		(1.45810056 0.18518200 0.10000000)
		(1.47486034 0.19861787 0.10000000)
		(1.49162011 0.21065367 0.10000000)
		(1.50837989 0.22120456 0.10000000)
		(1.52513966 0.23019615 0.10000000)
		(1.54189944 0.23756508 0.10000000)
		(1.55865922 0.24325939 0.10000000)
		(1.57541899 0.24723895 0.10000000)
		(1.59217877 0.24947570 0.10000000)
		(1.60893855 0.24995388 0.10000000)
		(1.62569832 0.24867012 0.10000000)
		(1.64245810 0.24563346 0.10000000)
		(1.65921788 0.24086531 0.10000000)
		(1.67597765 0.23439928 0.10000000)
		(1.69273743 0.22628095 0.10000000)
		(1.70949721 0.21656756 0.10000000)
		(1.72625698 0.20532756 0.10000000)
		(1.74301676 0.19264019 0.10000000)
		(1.75977654 0.17859489 0.10000000)
		(1.77653631 0.16329065 0.10000000)
		(1.79329609 0.14683537 0.10000000)
		(1.81005587 0.12934504 0.10000000)
		(1.82681564 0.11094294 0.10000000)
		(1.84357542 0.09175879 0.10000000)
		(1.86033520 0.07192784 0.10000000)
		(1.87709497 0.05158985 0.10000000)
		(1.89385475 0.03088821 0.10000000)
		(1.91061453 0.00996883 0.10000000)
		(1.92737430 -0.01102082 0.10000000)
		(1.94413408 -0.03193278 0.10000000)
		(1.96089385 -0.05261964 0.10000000)
		(1.97765363 -0.07293559 0.10000000)
		(1.99441341 -0.09273741 0.10000000)
		(2.01117318 -0.11188551 0.10000000)
		(2.02793296 -0.13024492 0.10000000)
		(2.04469274 -0.14768623 0.10000000)
		(2.06145251 -0.16408649 0.10000000)
		(2.07821229 -0.17933009 0.10000000)
		(2.09497207 -0.19330957 0.10000000)
		(2.11173184 -0.20592640 0.10000000)
		(2.12849162 -0.21709165 0.10000000)
		(2.14525140 -0.22672659 0.10000000)
		(2.16201117 -0.23476332 0.10000000)
		(2.17877095 -0.24114519 0.10000000)
		(2.19553073 -0.24582721 0.10000000)
		(2.21229050 -0.24877637 0.10000000)
		(2.22905028 -0.24997189 0.10000000)
		(2.24581006 -0.24940534 0.10000000)
		(2.26256983 -0.24708071 0.10000000)
		(2.27932961 -0.24301439 0.10000000)
		(2.29608939 -0.23723504 0.10000000)
		(2.31284916 -0.22978340 0.10000000)
		(2.32960894 -0.22071200 0.10000000)
		(2.34636872 -0.21008479 0.10000000)
		(2.36312849 -0.19797668 0.10000000)
		(2.37988827 -0.18447301 0.10000000)
		(2.39664804 -0.16966897 0.10000000)
		(2.41340782 -0.15366893 0.10000000)
		(2.43016760 -0.13658566 0.10000000)
		(2.44692737 -0.11853959 0.10000000)
		(2.46368715 -0.09965793 0.10000000)
		(2.48044693 -0.08007377 0.10000000)
		(2.49720670 -0.05992516 0.10000000)
		(2.51396648 -0.03935414 0.10000000)
		(2.53072626 -0.01850570 0.10000000)
		(2.54748603 0.00247318 0.10000000)
		(2.56424581 0.02343463 0.10000000)
		(2.58100559 0.04423089 0.10000000)
		(2.59776536 0.06471536 0.10000000)
		(2.61452514 0.08474364 0.10000000)
		(2.63128492 0.10417456 0.10000000)
		(2.64804469 0.12287115 0.10000000)
		(2.66480447 0.14070161 0.10000000)
		(2.68156425 0.15754025 0.10000000)
		(2.69832402 0.17326838 0.10000000)
		(2.71508380 0.18777513 0.10000000)
		(2.73184358 0.20095823 0.10000000)
		(2.74860335 0.21272477 0.10000000)
		(2.76536313 0.22299179 0.10000000)
		(2.78212291 0.23168693 0.10000000)
		(2.79888268 0.23874889 0.10000000)
		(2.81564246 0.24412788 0.10000000)
		(2.83240223 0.24778601 0.10000000)
		(2.84916201 0.24969747 0.10000000)
		(2.86592179 0.24984879 0.10000000)
		(2.88268156 0.24823891 0.10000000)
		(2.89944134 0.24487917 0.10000000)
		(2.91620112 0.23979327 0.10000000)
		(2.93296089 0.23301704 0.10000000)
		(2.95166480 0.22486951 0.10000000)
		(2.97036872 0.21757962 0.10000000)
		(2.98907263 0.21114736 0.10000000)
		(3.00777654 0.20557274 0.10000000)
		(3.02648045 0.20085575 0.10000000)
		(3.04518436 0.19699640 0.10000000)
		(3.06388827 0.19399468 0.10000000)
		(3.08259218 0.19185059 0.10000000)
		(3.10129609 0.19056414 0.10000000)
		(3.12000000 0.19013532 0.10000000)
		(3.14000000 0.19013532 0.10000000)
		(3.16000000 0.19013532 0.10000000)
		(3.18000000 0.19013532 0.10000000)
		(3.20000000 0.19013532 0.10000000)
		(3.22000000 0.19013532 0.10000000)
		(3.24000000 0.19013532 0.10000000)
		(3.26000000 0.19013532 0.10000000)
		(3.28000000 0.19013532 0.10000000)
		(3.30000000 0.19013532 0.10000000)
		(3.32000000 0.19013532 0.10000000)
		(3.34000000 0.19013532 0.10000000)
		(3.36000000 0.19013532 0.10000000)
		(3.38000000 0.19013532 0.10000000)
		(3.40000000 0.19013532 0.10000000)
		(3.42000000 0.19013532 0.10000000)
		(3.44000000 0.19013532 0.10000000)
		(3.46000000 0.19013532 0.10000000)
		(3.48000000 0.19013532 0.10000000)
		(3.50000000 0.19013532 0.10000000)
		(3.52000000 0.19013532 0.10000000)
		(3.54000000 0.19013532 0.10000000)
		(3.56000000 0.19013532 0.10000000)
		(3.58000000 0.19013532 0.10000000)
		(3.60000000 0.19013532 0.10000000)
		(3.62000000 0.19013532 0.10000000)
		(3.64000000 0.19013532 0.10000000)
		(3.66000000 0.19013532 0.10000000)
		(3.68000000 0.19013532 0.10000000)
		(3.70000000 0.19013532 0.10000000)
		(3.72000000 0.19013532 0.10000000)
		(3.74000000 0.19013532 0.10000000)
		(3.76000000 0.19013532 0.10000000)
		(3.78000000 0.19013532 0.10000000)
		(3.80000000 0.19013532 0.10000000)
		(3.82000000 0.19013532 0.10000000)
		(3.84000000 0.19013532 0.10000000)
		(3.86000000 0.19013532 0.10000000)
		(3.88000000 0.19013532 0.10000000)
		(3.90000000 0.19013532 0.10000000)
		(3.92000000 0.19013532 0.10000000)
		(3.94000000 0.19013532 0.10000000)
		(3.96000000 0.19013532 0.10000000)
		(3.98000000 0.19013532 0.10000000)
		(4.00000000 0.19013532 0.10000000)
	)
	polyLine 3 2
	(
		(-1.00000000 0.45297623 0.00000000)
		(-0.98000000 0.45203835 0.00000000)
		(-0.96000000 0.45110047 0.00000000)
		(-0.94000000 0.45016259 0.00000000)
		(-0.92000000 0.44922472 0.00000000)
		(-0.90000000 0.44828684 0.00000000)
		(-0.88000000 0.44734896 0.00000000)
		(-0.86000000 0.44641108 0.00000000)
		(-0.84000000 0.44547320 0.00000000)
		(-0.82000000 0.44453532 0.00000000)
		(-0.80000000 0.44359744 0.00000000)
		(-0.78000000 0.44265957 0.00000000)
		(-0.76000000 0.44172169 0.00000000)
		(-0.74000000 0.44078381 0.00000000)
		(-0.72000000 0.43984593 0.00000000)
		(-0.70000000 0.43890805 0.00000000)
		(-0.68000000 0.43797017 0.00000000)
		(-0.66000000 0.43703229 0.00000000)
		(-0.64000000 0.43609441 0.00000000)
		(-0.62000000 0.43515654 0.00000000)
		(-0.60000000 0.43421866 0.00000000)
		(-0.58000000 0.43328078 0.00000000)
		(-0.56000000 0.43234290 0.00000000)
		(-0.54000000 0.43140502 0.00000000)
		(-0.52000000 0.43046714 0.00000000)
		(-0.50000000 0.42952926 0.00000000)
		(-0.48000000 0.42859138 0.00000000)
		(-0.46000000 0.42765351 0.00000000)
		(-0.44000000 0.42671563 0.00000000)
		(-0.42000000 0.42577775 0.00000000)
		(-0.40000000 0.42483987 0.00000000)
		(-0.38000000 0.42390199 0.00000000)
		(-0.36000000 0.42296411 0.00000000)
		(-0.34000000 0.42202623 0.00000000)
		(-0.32000000 0.42108836 0.00000000)
		(-0.30000000 0.42015048 0.00000000)
		(-0.28000000 0.41921260 0.00000000)
		(-0.26000000 0.41827472 0.00000000)
		(-0.24000000 0.41733684 0.00000000)
		(-0.22000000 0.41639896 0.00000000)
		(-0.20000000 0.41546108 0.00000000)
		(-0.18000000 0.41452320 0.00000000)
		(-0.16000000 0.41358533 0.00000000)
		(-0.14000000 0.41264745 0.00000000)
		(-0.12000000 0.41170957 0.00000000)
		(-0.10000000 0.41077169 0.00000000)
		(-0.08162011 0.40873696 0.00000000)
		(-0.06324022 0.41164901 0.00000000)
		(-0.04486034 0.41950783 0.00000000)
		(-0.02648045 0.43231342 0.00000000)
		(-0.00810056 0.45006578 0.00000000)
		(0.01027933 0.47276491 0.00000000)
		(0.02865922 0.50041082 0.00000000)
		(0.04703911 0.53300349 0.00000000)
		(0.06541899 0.57054294 0.00000000)
		(0.08379888 0.61302916 0.00000000)
		(0.10055866 0.65299847 0.00000000)
		(0.11731844 0.69188927 0.00000000)
		(0.13407821 0.72942744 0.00000000)
		(0.15083799 0.76534835 0.00000000)
		(0.16759777 0.79939880 0.00000000)
		(0.18435754 0.83133877 0.00000000)
		(0.20111732 0.86094311 0.00000000)
		(0.21787709 0.88800312 0.00000000)
		(0.23463687 0.91232808 0.00000000)
		(0.25139665 0.93374650 0.00000000)
		(0.26815642 0.95210741 0.00000000)
		(0.28491620 0.96728138 0.00000000)
		(0.30167598 0.97916145 0.00000000)
		(0.31843575 0.98766388 0.00000000)
		(0.33519553 0.99272872 0.00000000)
		(0.35195531 0.99432028 0.00000000)
		(0.36871508 0.99242734 0.00000000)
		(0.38547486 0.98706324 0.00000000)
		(0.40223464 0.97826579 0.00000000)
		(0.41899441 0.96609701 0.00000000)
		(0.43575419 0.95064268 0.00000000)
		(0.45251397 0.93201174 0.00000000)
		(0.46927374 0.91033551 0.00000000)
		(0.48603352 0.88576679 0.00000000)
		(0.50279330 0.85847877 0.00000000)
		(0.51955307 0.82866381 0.00000000)
		(0.53631285 0.79653208 0.00000000)
		(0.55307263 0.76231006 0.00000000)
		(0.56983240 0.72623900 0.00000000)
		(0.58659218 0.68857317 0.00000000)
		(0.60335196 0.64957807 0.00000000)
		(0.62011173 0.60952858 0.00000000)
		(0.63687151 0.56870702 0.00000000)
		(0.65363128 0.52740113 0.00000000)
		(0.67039106 0.48590210 0.00000000)
		(0.68715084 0.44450244 0.00000000)
		(0.70391061 0.40349398 0.00000000)
		(0.72067039 0.36316581 0.00000000)
		(0.73743017 0.32380219 0.00000000)
		(0.75418994 0.28568060 0.00000000)
		(0.77094972 0.24906976 0.00000000)
		(0.78770950 0.21422776 0.00000000)
		(0.80446927 0.18140018 0.00000000)
		(0.82122905 0.15081843 0.00000000)
		(0.83798883 0.12269810 0.00000000)
		(0.85474860 0.09723739 0.00000000)
		(0.87150838 0.07461579 0.00000000)
		(0.88826816 0.05499276 0.00000000)
		(0.90502793 0.03850661 0.00000000)
		(0.92178771 0.02527357 0.00000000)
		(0.93854749 0.01538691 0.00000000)
		(0.95530726 0.00891633 0.00000000)
		(0.97206704 0.00590743 0.00000000)
		(0.98882682 0.00638143 0.00000000)
		(1.00558659 0.01033498 0.00000000)
		(1.02234637 0.01774022 0.00000000)
		(1.03910615 0.02854494 0.00000000)
		(1.05586592 0.04267299 0.00000000)
		(1.07262570 0.06002477 0.00000000)
		(1.08938547 0.08047797 0.00000000)
		(1.10614525 0.10388842 0.00000000)
		(1.12290503 0.13009108 0.00000000)
		(1.13966480 0.15890126 0.00000000)
		(1.15642458 0.19011588 0.00000000)
		(1.17318436 0.22351489 0.00000000)
		(1.18994413 0.25886286 0.00000000)
		(1.20670391 0.29591063 0.00000000)
		(1.22346369 0.33439704 0.00000000)
		(1.24022346 0.37405079 0.00000000)
		(1.25698324 0.41459238 0.00000000)
		(1.27374302 0.45573601 0.00000000)
		(1.29050279 0.49719165 0.00000000)
		(1.30726257 0.53866710 0.00000000)
		(1.32402235 0.57986998 0.00000000)
		(1.34078212 0.62050984 0.00000000)
		(1.35754190 0.66030023 0.00000000)
		(1.37430168 0.69896064 0.00000000)
		(1.39106145 0.73621857 0.00000000)
		(1.40782123 0.77181138 0.00000000)
		(1.42458101 0.80548816 0.00000000)
		(1.44134078 0.83701154 0.00000000)
		(1.45810056 0.86615929 0.00000000)
		(1.47486034 0.89272596 0.00000000)
		(1.49162011 0.91652428 0.00000000)
		(1.50837989 0.93738648 0.00000000)
		(1.52513966 0.95516551 0.00000000)
		(1.54189944 0.96973605 0.00000000)
		(1.55865922 0.98099538 0.00000000)
		(1.57541899 0.98886414 0.00000000)
		(1.59217877 0.99328685 0.00000000)
		(1.60893855 0.99423235 0.00000000)
		(1.62569832 0.99169397 0.00000000)
		(1.64245810 0.98568960 0.00000000)
		(1.65921788 0.97626157 0.00000000)
		(1.67597765 0.96347633 0.00000000)
		(1.69273743 0.94742401 0.00000000)
		(1.70949721 0.92821777 0.00000000)
		(1.72625698 0.90599298 0.00000000)
		(1.74301676 0.88090632 0.00000000)
		(1.75977654 0.85313463 0.00000000)
		(1.77653631 0.82287365 0.00000000)
		(1.79329609 0.79033672 0.00000000)
		(1.81005587 0.75575318 0.00000000)
		(1.82681564 0.71936682 0.00000000)
		(1.84357542 0.68143413 0.00000000)
		(1.86033520 0.64222249 0.00000000)
		(1.87709497 0.60200831 0.00000000)
		(1.89385475 0.56107507 0.00000000)
		(1.91061453 0.51971131 0.00000000)
		(1.92737430 0.47820860 0.00000000)
		(1.94413408 0.43685950 0.00000000)
		(1.96089385 0.39595548 0.00000000)
		(1.97765363 0.35578488 0.00000000)
		(1.99441341 0.31663087 0.00000000)
		(2.01117318 0.27876943 0.00000000)
		(2.02793296 0.24246747 0.00000000)
		(2.04469274 0.20798088 0.00000000)
		(2.06145251 0.17555274 0.00000000)
		(2.07821229 0.14541167 0.00000000)
		(2.09497207 0.11777011 0.00000000)
		(2.11173184 0.09282292 0.00000000)
		(2.12849162 0.07074596 0.00000000)
		(2.14525140 0.05169483 0.00000000)
		(2.16201117 0.03580385 0.00000000)
		(2.17877095 0.02318502 0.00000000)
		(2.19553073 0.01392729 0.00000000)
		(2.21229050 0.00809593 0.00000000)
		(2.22905028 0.00573204 0.00000000)
		(2.24581006 0.00685228 0.00000000)
		(2.26256983 0.01144876 0.00000000)
		(2.27932961 0.01948907 0.00000000)
		(2.29608939 0.03091654 0.00000000)
		(2.31284916 0.04565062 0.00000000)
		(2.32960894 0.06358744 0.00000000)
		(2.34636872 0.08460056 0.00000000)
		(2.36312849 0.10854187 0.00000000)
		(2.37988827 0.13524260 0.00000000)
		(2.39664804 0.16451453 0.00000000)
		(2.41340782 0.19615132 0.00000000)
		(2.43016760 0.22992996 0.00000000)
		(2.44692737 0.26561235 0.00000000)
		(2.46368715 0.30294696 0.00000000)
		(2.48044693 0.34167061 0.00000000)
		(2.49720670 0.38151033 0.00000000)
		(2.51396648 0.42218529 0.00000000)
		(2.53072626 0.46340878 0.00000000)