/*--------------------------------*- C++ -*----------------------------------*\\
/*--------------------------------*- C++ -*----------------------------------*\\
| =========                 |                                                 |
| \\\\      /  F ield         | OpenFOAM: The Open Source CFD Toolbox           |
|  \\\\    /   O peration     | Version:  v2012                                 |
|   \\\\  /    A nd           | Website:  www.openfoam.com                      |
|    \\\\/     M anipulation  |                                                 |
\\*---------------------------------------------------------------------------*/
FoamFile
{
    version     2.0;
    format      ascii;
    class       dictionary;
    object      blockMeshDict;
}
// * * * * * * * * * * * * * * * * * * * * * * * * * * * * * * * * * * * * * //

scale   0.01;

xmin -1;
xmax 5;
ymin 0;
ymax 0.5;
zmin 0;
zmax 0.1;

vertices
(
    (-1.00000000 0.02108681 0.00000000)
    (4.00000000 -0.20081360 0.00000000)
    (4.00000000 0.29918640 0.00000000)
    (-1.00000000 0.52108681 0.00000000)
    (-1.00000000 0.02108681 0.10000000)
    (4.00000000 -0.20081360 0.10000000)
    (4.00000000 0.29918640 0.10000000)
    (-1.00000000 0.52108681 0.10000000)
);

blocks
(
    hex (0 1 2 3 4 5 6 7) (200 20 1) simpleGrading (1 1 1)
);

edges
(
	polyLine 0 1
	(
		(-1.00000000 0.02108681 0.00000000)
		(-0.98000000 0.02108681 0.00000000)
		(-0.96000000 0.02108681 0.00000000)
		(-0.94000000 0.02108681 0.00000000)
		(-0.92000000 0.02108681 0.00000000)
		(-0.90000000 0.02108681 0.00000000)
		(-0.88000000 0.02108681 0.00000000)
		(-0.86000000 0.02108681 0.00000000)
		(-0.84000000 0.02108681 0.00000000)
		(-0.82000000 0.02108681 0.00000000)
		(-0.80000000 0.02108681 0.00000000)
		(-0.78000000 0.02108681 0.00000000)
		(-0.76000000 0.02108681 0.00000000)
		(-0.74000000 0.02108681 0.00000000)
		(-0.72000000 0.02108681 0.00000000)
		(-0.70000000 0.02108681 0.00000000)
		(-0.68000000 0.02108681 0.00000000)
		(-0.66000000 0.02108681 0.00000000)
		(-0.64000000 0.02108681 0.00000000)
		(-0.62000000 0.02108681 0.00000000)
		(-0.60000000 0.02108681 0.00000000)
		(-0.58000000 0.02108681 0.00000000)
		(-0.56000000 0.02108681 0.00000000)
		(-0.54000000 0.02108681 0.00000000)
		(-0.52000000 0.02108681 0.00000000)
		(-0.50000000 0.02108681 0.00000000)
		(-0.48000000 0.02108681 0.00000000)
		(-0.46000000 0.02108681 0.00000000)
		(-0.44000000 0.02108681 0.00000000)
		(-0.42000000 0.02108681 0.00000000)
		(-0.40000000 0.02108681 0.00000000)
		(-0.38000000 0.02108681 0.00000000)
		(-0.36000000 0.02108681 0.00000000)
		(-0.34000000 0.02108681 0.00000000)
		(-0.32000000 0.02108681 0.00000000)
		(-0.30000000 0.02108681 0.00000000)
		(-0.28000000 0.02108681 0.00000000)
		(-0.26000000 0.02108681 0.00000000)
		(-0.24000000 0.02108681 0.00000000)
		(-0.22000000 0.02108681 0.00000000)
		(-0.20000000 0.02108681 0.00000000)
		(-0.18000000 0.02108681 0.00000000)
		(-0.16000000 0.02108681 0.00000000)
		(-0.14000000 0.02108681 0.00000000)
		(-0.12000000 0.02108681 0.00000000)
		(-0.10000000 0.02108681 0.00000000)
		(-0.08162011 0.02217607 0.00000000)
		(-0.06324022 0.02544386 0.00000000)
		(-0.04486034 0.03089018 0.00000000)
		(-0.02648045 0.03851503 0.00000000)
		(-0.00810056 0.04831841 0.00000000)
		(0.01027933 0.06030031 0.00000000)
		(0.02865922 0.07446074 0.00000000)
		(0.04703911 0.09079970 0.00000000)
		(0.06541899 0.10931719 0.00000000)
		(0.08379888 0.13001320 0.00000000)
		(0.10055866 0.14917969 0.00000000)
		(0.11731844 0.16707086 0.00000000)
		(0.13407821 0.18353376 0.00000000)
		(0.15083799 0.19842765 0.00000000)
		(0.16759777 0.21162522 0.00000000)
		(0.18435754 0.22301362 0.00000000)
		(0.20111732 0.23249552 0.00000000)
		(0.21787709 0.23998984 0.00000000)
		(0.23463687 0.24543252 0.00000000)
		(0.25139665 0.24877703 0.00000000)
		(0.26815642 0.24999478 0.00000000)
		(0.28491620 0.24907536 0.00000000)
		(0.30167598 0.24602663 0.00000000)
		(0.31843575 0.24087465 0.00000000)
		(0.33519553 0.23366346 0.00000000)
		(0.35195531 0.22445471 0.00000000)
		(0.36871508 0.21332713 0.00000000)
		(0.38547486 0.20037585 0.00000000)
		(0.40223464 0.18571158 0.00000000)
		(0.41899441 0.16945969 0.00000000)
		(0.43575419 0.15175911 0.00000000)
		(0.45251397 0.13276116 0.00000000)
		(0.46927374 0.11262825 0.00000000)
		(0.48603352 0.09153250 0.00000000)
		(0.50279330 0.06965425 0.00000000)
		(0.51955307 0.04718054 0.00000000)
		(0.53631285 0.02430348 0.00000000)
		(0.55307263 0.00121866 0.00000000)
		(0.56983240 -0.02187658 0.00000000)
		(0.58659218 -0.04478480 0.00000000)
		(0.60335196 -0.06731016 0.00000000)
		(0.62011173 -0.08926010 0.00000000)
		(0.63687151 -0.11044696 0.00000000)
		(0.65363128 -0.13068962 0.00000000)
		(0.67039106 -0.14981504 0.00000000)
		(0.68715084 -0.16765971 0.00000000)
		(0.70391061 -0.18407108 0.00000000)
		(0.72067039 -0.19890885 0.00000000)
		(0.73743017 -0.21204618 0.00000000)
		(0.75418994 -0.22337075 0.00000000)
		(0.77094972 -0.23278575 0.00000000)
		(0.78770950 -0.24021070 0.00000000)
		(0.80446927 -0.24558212 0.00000000)
		(0.82122905 -0.24885410 0.00000000)
		(0.83798883 -0.24999865 0.00000000)
		(0.85474860 -0.24900599 0.00000000)
		(0.87150838 -0.24588462 0.00000000)
		(0.88826816 -0.24066122 0.00000000)
		(0.90502793 -0.23338043 0.00000000)
		(0.92178771 -0.22410451 0.00000000)
		(0.93854749 -0.21291274 0.00000000)
		(0.95530726 -0.19990082 0.00000000)
		(0.97206704 -0.18517996 0.00000000)
		(0.98882682 -0.16887603 0.00000000)
		(1.00558659 -0.15112840 0.00000000)
		(1.02234637 -0.13208880 0.00000000)
		(1.03910615 -0.11191998 0.00000000)
		(1.05586592 -0.09079438 0.00000000)
		(1.07262570 -0.06889259 0.00000000)
		(1.08938547 -0.04640184 0.00000000)
		(1.10614525 -0.02351441 0.00000000)
		(1.12290503 -0.00042596 0.00000000)
		(1.13966480 0.02266613 0.00000000)
		(1.15642458 0.04556445 0.00000000)
		(1.17318436 0.06807325 0.00000000)
		(1.18994413 0.09000010 0.00000000)
		(1.20670391 0.11115755 0.00000000)
		(1.22346369 0.13136473 0.00000000)
		(1.24022346 0.15044889 0.00000000)
		(1.25698324 0.16824688 0.00000000)
		(1.27374302 0.18460656 0.00000000)
		(1.29050279 0.19938805 0.00000000)
		(1.30726257 0.21246501 0.00000000)
		(1.32402235 0.22372562 0.00000000)
		(1.34078212 0.23307364 0.00000000)
		(1.35754190 0.24042915 0.00000000)
		(1.37430168 0.24572925 0.00000000)
		(1.39106145 0.24892866 0.00000000)
		(1.40782123 0.25000000 0.00000000)
		(1.42458101 0.24893412 0.00000000)
		(1.44134078 0.24574015 0.00000000)
		(1.45810056 0.24044537 0.00000000)
		(1.47486034 0.23309506 0.00000000)
		(1.49162011 0.22375205 0.00000000)
		(1.50837989 0.21249621 0.00000000)
		(1.52513966 0.19942377 0.00000000)
		(1.54189944 0.18464648 0.00000000)
		(1.55865922 0.16829068 0.00000000)
		(1.57541899 0.15049618 0.00000000)
		(1.59217877 0.13141511 0.00000000)
		(1.60893855 0.11121059 0.00000000)
		(1.62569832 0.09005535 0.00000000)
		(1.64245810 0.06813023 0.00000000)
		(1.65921788 0.04562268 0.00000000)
		(1.67597765 0.02272511 0.00000000)
		(1.69273743 -0.00036674 0.00000000)
		(1.70949721 -0.02345545 0.00000000)
		(1.72625698 -0.04634365 0.00000000)
		(1.74301676 -0.06883566 0.00000000)
		(1.75977654 -0.09073920 0.00000000)
		(1.77653631 -0.11186703 0.00000000)
		(1.79329609 -0.13203852 0.00000000)
		(1.81005587 -0.15108123 0.00000000)
		(1.82681564 -0.16883236 0.00000000)
		(1.84357542 -0.18514017 0.00000000)
		(1.86033520 -0.19986525 0.00000000)
		(1.87709497 -0.21288170 0.00000000)
		(1.89385475 -0.22407825 0.00000000)
		(1.91061453 -0.23335919 0.00000000)
		(1.92737430 -0.24064518 0.00000000)
		(1.94413408 -0.24587392 0.00000000)
		(1.96089385 -0.24900071 0.00000000)
		(1.97765363 -0.24999884 0.00000000)
		(1.99441341 -0.24885975 0.00000000)
		(2.01117318 -0.24559320 0.00000000)
		(2.02793296 -0.24022710 0.00000000)
		(2.04469274 -0.23280734 0.00000000)
		(2.06145251 -0.22339734 0.00000000)
		(2.07821229 -0.21207754 0.00000000)
		(2.09497207 -0.19894472 0.00000000)
		(2.11173184 -0.18411115 0.00000000)
		(2.12849162 -0.16770364 0.00000000)
		(2.14525140 -0.14986245 0.00000000)
		(2.16201117 -0.13074010 0.00000000)
		(2.17877095 -0.11050008 0.00000000)
		(2.19553073 -0.08931541 0.00000000)
		(2.21229050 -0.06736719 0.00000000)
		(2.22905028 -0.04484306 0.00000000)
		(2.24581006 -0.02193557 0.00000000)
		(2.26256983 0.00115944 0.00000000)
		(2.27932961 0.02424454 0.00000000)
		(2.29608939 0.04712238 0.00000000)
		(2.31284916 0.06959737 0.00000000)
		(2.32960894 0.09147739 0.00000000)
		(2.34636872 0.11257538 0.00000000)
		(2.36312849 0.13271097 0.00000000)
		(2.37988827 0.15171204 0.00000000)
		(2.39664804 0.16941614 0.00000000)
		(2.41340782 0.18567193 0.00000000)
		(2.43016760 0.20034043 0.00000000)
		(2.44692737 0.21329625 0.00000000)
		(2.46368715 0.22442863 0.00000000)
		(2.48044693 0.23364239 0.00000000)
		(2.49720670 0.24085878 0.00000000)
		(2.51396648 0.24601610 0.00000000)
		(2.53072626 0.24907027 0.00000000)
		(2.54748603 0.24999516 0.00000000)
		(2.56424581 0.24878288 0.00000000)
		(2.58100559 0.24544378 0.00000000)
		(2.59776536 0.24000642 0.00000000)
		(2.61452514 0.23251728 0.00000000)
		(2.63128492 0.22304038 0.00000000)
		(2.64804469 0.21165674 0.00000000)
		(2.66480447 0.19846367 0.00000000)
		(2.68156425 0.18357396 0.00000000)
		(2.69832402 0.16711490 0.00000000)
		(2.71508380 0.14922721 0.00000000)
		(2.73184358 0.13006378 0.00000000)
		(2.74860335 0.10978846 0.00000000)
		(2.76536313 0.08857457 0.00000000)
		(2.78212291 0.06660347 0.00000000)
		(2.79888268 0.04406299 0.00000000)
		(2.81564246 0.02114582 0.00000000)
		(2.83240223 -0.00195213 0.00000000)
		(2.84916201 -0.02503339 0.00000000)
		(2.86592179 -0.04790064 0.00000000)
		(2.88268156 -0.07035839 0.00000000)
		(2.89944134 -0.09221466 0.00000000)
		(2.91620112 -0.11328260 0.00000000)
		(2.93296089 -0.13338210 0.00000000)
		(2.95166480 -0.14619408 0.00000000)
		(2.97036872 -0.15765744 0.00000000)
		(2.98907263 -0.16777217 0.00000000)
		(3.00777654 -0.17653826 0.00000000)
		(3.02648045 -0.18395573 0.00000000)
		(3.04518436 -0.19002456 0.00000000)
		(3.06388827 -0.19474477 0.00000000)
		(3.08259218 -0.19811634 0.00000000)
		(3.10129609 -0.20013929 0.00000000)
		(3.12000000 -0.20081360 0.00000000)
		(3.14000000 -0.20081360 0.00000000)
		(3.16000000 -0.20081360 0.00000000)
		(3.18000000 -0.20081360 0.00000000)
		(3.20000000 -0.20081360 0.00000000)
		(3.22000000 -0.20081360 0.00000000)
		(3.24000000 -0.20081360 0.00000000)
		(3.26000000 -0.20081360 0.00000000)
		(3.28000000 -0.20081360 0.00000000)
		(3.30000000 -0.20081360 0.00000000)
		(3.32000000 -0.20081360 0.00000000)
		(3.34000000 -0.20081360 0.00000000)
		(3.36000000 -0.20081360 0.00000000)
		(3.38000000 -0.20081360 0.00000000)
		(3.40000000 -0.20081360 0.00000000)
		(3.42000000 -0.20081360 0.00000000)
		(3.44000000 -0.20081360 0.00000000)
		(3.46000000 -0.20081360 0.00000000)
		(3.48000000 -0.20081360 0.00000000)
		(3.50000000 -0.20081360 0.00000000)
		(3.52000000 -0.20081360 0.00000000)
		(3.54000000 -0.20081360 0.00000000)
		(3.56000000 -0.20081360 0.00000000)
		(3.58000000 -0.20081360 0.00000000)
		(3.60000000 -0.20081360 0.00000000)
		(3.62000000 -0.20081360 0.00000000)
		(3.64000000 -0.20081360 0.00000000)
		(3.66000000 -0.20081360 0.00000000)
		(3.68000000 -0.20081360 0.00000000)
		(3.70000000 -0.20081360 0.00000000)
		(3.72000000 -0.20081360 0.00000000)
		(3.74000000 -0.20081360 0.00000000)
		(3.76000000 -0.20081360 0.00000000)
		(3.78000000 -0.20081360 0.00000000)
		(3.80000000 -0.20081360 0.00000000)
		(3.82000000 -0.20081360 0.00000000)
		(3.84000000 -0.20081360 0.00000000)
		(3.86000000 -0.20081360 0.00000000)
		(3.88000000 -0.20081360 0.00000000)
		(3.90000000 -0.20081360 0.00000000)
		(3.92000000 -0.20081360 0.00000000)
		(3.94000000 -0.20081360 0.00000000)
		(3.96000000 -0.20081360 0.00000000)
		(3.98000000 -0.20081360 0.00000000)
		(4.00000000 -0.20081360 0.00000000)
	)
	polyLine 4 5
	(
		(-1.00000000 0.02108681 0.10000000)
		(-0.98000000 0.02108681 0.10000000)
		(-0.96000000 0.02108681 0.10000000)
		(-0.94000000 0.02108681 0.10000000)
		(-0.92000000 0.02108681 0.10000000)
		(-0.90000000 0.02108681 0.10000000)
		(-0.88000000 0.02108681 0.10000000)
		(-0.86000000 0.02108681 0.10000000)
		(-0.84000000 0.02108681 0.10000000)
		(-0.82000000 0.02108681 0.10000000)
		(-0.80000000 0.02108681 0.10000000)
		(-0.78000000 0.02108681 0.10000000)
		(-0.76000000 0.02108681 0.10000000)
		(-0.74000000 0.02108681 0.10000000)
		(-0.72000000 0.02108681 0.10000000)
		(-0.70000000 0.02108681 0.10000000)
		(-0.68000000 0.02108681 0.10000000)
		(-0.66000000 0.02108681 0.10000000)
		(-0.64000000 0.02108681 0.10000000)
		(-0.62000000 0.02108681 0.10000000)
		(-0.60000000 0.02108681 0.10000000)
		(-0.58000000 0.02108681 0.10000000)
		(-0.56000000 0.02108681 0.10000000)
		(-0.54000000 0.02108681 0.10000000)
		(-0.52000000 0.02108681 0.10000000)
		(-0.50000000 0.02108681 0.10000000)
		(-0.48000000 0.02108681 0.10000000)
		(-0.46000000 0.02108681 0.10000000)
		(-0.44000000 0.02108681 0.10000000)
		(-0.42000000 0.02108681 0.10000000)
		(-0.40000000 0.02108681 0.10000000)
		(-0.38000000 0.02108681 0.10000000)
		(-0.36000000 0.02108681 0.10000000)
		(-0.34000000 0.02108681 0.10000000)
		(-0.32000000 0.02108681 0.10000000)
		(-0.30000000 0.02108681 0.10000000)
		(-0.28000000 0.02108681 0.10000000)
		(-0.26000000 0.02108681 0.10000000)
		(-0.24000000 0.02108681 0.10000000)
		(-0.22000000 0.02108681 0.10000000)
		(-0.20000000 0.02108681 0.10000000)
		(-0.18000000 0.02108681 0.10000000)
		(-0.16000000 0.02108681 0.10000000)
		(-0.14000000 0.02108681 0.10000000)
		(-0.12000000 0.02108681 0.10000000)
		(-0.10000000 0.02108681 0.10000000)
		(-0.08162011 0.02217607 0.10000000)
		(-0.06324022 0.02544386 0.10000000)
		(-0.04486034 0.03089018 0.10000000)
		(-0.02648045 0.03851503 0.10000000)
		(-0.00810056 0.04831841 0.10000000)
		(0.01027933 0.06030031 0.10000000)
		(0.02865922 0.07446074 0.10000000)
		(0.04703911 0.09079970 0.10000000)
		(0.06541899 0.10931719 0.10000000)
		(0.08379888 0.13001320 0.10000000)
		(0.10055866 0.14917969 0.10000000)
		(0.11731844 0.16707086 0.10000000)
		(0.13407821 0.18353376 0.10000000)
		(0.15083799 0.19842765 0.10000000)
		(0.16759777 0.21162522 0.10000000)
		(0.18435754 0.22301362 0.10000000)
		(0.20111732 0.23249552 0.10000000)
		(0.21787709 0.23998984 0.10000000)
		(0.23463687 0.24543252 0.10000000)
		(0.25139665 0.24877703 0.10000000)
		(0.26815642 0.24999478 0.10000000)
		(0.28491620 0.24907536 0.10000000)
		(0.30167598 0.24602663 0.10000000)
		(0.31843575 0.24087465 0.10000000)
		(0.33519553 0.23366346 0.10000000)
		(0.35195531 0.22445471 0.10000000)
		(0.36871508 0.21332713 0.10000000)
		(0.38547486 0.20037585 0.10000000)
		(0.40223464 0.18571158 0.10000000)
		(0.41899441 0.16945969 0.10000000)
		(0.43575419 0.15175911 0.10000000)
		(0.45251397 0.13276116 0.10000000)
		(0.46927374 0.11262825 0.10000000)
		(0.48603352 0.09153250 0.10000000)
		(0.50279330 0.06965425 0.10000000)
		(0.51955307 0.04718054 0.10000000)
		(0.53631285 0.02430348 0.10000000)
		(0.55307263 0.00121866 0.10000000)
		(0.56983240 -0.02187658 0.10000000)
		(0.58659218 -0.04478480 0.10000000)
		(0.60335196 -0.06731016 0.10000000)
		(0.62011173 -0.08926010 0.10000000)
		(0.63687151 -0.11044696 0.10000000)
		(0.65363128 -0.13068962 0.10000000)
		(0.67039106 -0.14981504 0.10000000)
		(0.68715084 -0.16765971 0.10000000)
		(0.70391061 -0.18407108 0.10000000)
		(0.72067039 -0.19890885 0.10000000)
		(0.73743017 -0.21204618 0.10000000)
		(0.75418994 -0.22337075 0.10000000)
		(0.77094972 -0.23278575 0.10000000)
		(0.78770950 -0.24021070 0.10000000)
		(0.80446927 -0.24558212 0.10000000)
		(0.82122905 -0.24885410 0.10000000)
		(0.83798883 -0.24999865 0.10000000)
		(0.85474860 -0.24900599 0.10000000)
		(0.87150838 -0.24588462 0.10000000)
		(0.88826816 -0.24066122 0.10000000)
		(0.90502793 -0.23338043 0.10000000)
		(0.92178771 -0.22410451 0.10000000)
		(0.93854749 -0.21291274 0.10000000)
		(0.95530726 -0.19990082 0.10000000)
		(0.97206704 -0.18517996 0.10000000)
		(0.98882682 -0.16887603 0.10000000)
		(1.00558659 -0.15112840 0.10000000)
		(1.02234637 -0.13208880 0.10000000)
		(1.03910615 -0.11191998 0.10000000)
		(1.05586592 -0.09079438 0.10000000)
		(1.07262570 -0.06889259 0.10000000)
		(1.08938547 -0.04640184 0.10000000)
		(1.10614525 -0.02351441 0.10000000)
		(1.12290503 -0.00042596 0.10000000)
		(1.13966480 0.02266613 0.10000000)
		(1.15642458 0.04556445 0.10000000)
		(1.17318436 0.06807325 0.10000000)
		(1.18994413 0.09000010 0.10000000)
		(1.20670391 0.11115755 0.10000000)
		(1.22346369 0.13136473 0.10000000)
		(1.24022346 0.15044889 0.10000000)
		(1.25698324 0.16824688 0.10000000)
		(1.27374302 0.18460656 0.10000000)
		(1.29050279 0.19938805 0.10000000)
		(1.30726257 0.21246501 0.10000000)
		(1.32402235 0.22372562 0.10000000)
		(1.34078212 0.23307364 0.10000000)
		(1.35754190 0.24042915 0.10000000)
		(1.37430168 0.24572925 0.10000000)
		(1.39106145 0.24892866 0.10000000)
		(1.40782123 0.25000000 0.10000000)
		(1.42458101 0.24893412 0.10000000)
		(1.44134078 0.24574015 0.10000000)
		(1.45810056 0.24044537 0.10000000)
		(1.47486034 0.23309506 0.10000000)
		(1.49162011 0.22375205 0.10000000)
		(1.50837989 0.21249621 0.10000000)
		(1.52513966 0.19942377 0.10000000)
		(1.54189944 0.18464648 0.10000000)
		(1.55865922 0.16829068 0.10000000)
		(1.57541899 0.15049618 0.10000000)
		(1.59217877 0.13141511 0.10000000)
		(1.60893855 0.11121059 0.10000000)
		(1.62569832 0.09005535 0.10000000)
		(1.64245810 0.06813023 0.10000000)
		(1.65921788 0.04562268 0.10000000)
		(1.67597765 0.02272511 0.10000000)
		(1.69273743 -0.00036674 0.10000000)
		(1.70949721 -0.02345545 0.10000000)
		(1.72625698 -0.04634365 0.10000000)
		(1.74301676 -0.06883566 0.10000000)
		(1.75977654 -0.09073920 0.10000000)
		(1.77653631 -0.11186703 0.10000000)
		(1.79329609 -0.13203852 0.10000000)
		(1.81005587 -0.15108123 0.10000000)
		(1.82681564 -0.16883236 0.10000000)
		(1.84357542 -0.18514017 0.10000000)
		(1.86033520 -0.19986525 0.10000000)
		(1.87709497 -0.21288170 0.10000000)
		(1.89385475 -0.22407825 0.10000000)
		(1.91061453 -0.23335919 0.10000000)
		(1.92737430 -0.24064518 0.10000000)
		(1.94413408 -0.24587392 0.10000000)
		(1.96089385 -0.24900071 0.10000000)
		(1.97765363 -0.24999884 0.10000000)
		(1.99441341 -0.24885975 0.10000000)
		(2.01117318 -0.24559320 0.10000000)
		(2.02793296 -0.24022710 0.10000000)
		(2.04469274 -0.23280734 0.10000000)
		(2.06145251 -0.22339734 0.10000000)
		(2.07821229 -0.21207754 0.10000000)
		(2.09497207 -0.19894472 0.10000000)
		(2.11173184 -0.18411115 0.10000000)
		(2.12849162 -0.16770364 0.10000000)
		(2.14525140 -0.14986245 0.10000000)
		(2.16201117 -0.13074010 0.10000000)
		(2.17877095 -0.11050008 0.10000000)
		(2.19553073 -0.08931541 0.10000000)
		(2.21229050 -0.06736719 0.10000000)
		(2.22905028 -0.04484306 0.10000000)
		(2.24581006 -0.02193557 0.10000000)
		(2.26256983 0.00115944 0.10000000)
		(2.27932961 0.02424454 0.10000000)
		(2.29608939 0.04712238 0.10000000)
		(2.31284916 0.06959737 0.10000000)
		(2.32960894 0.09147739 0.10000000)
		(2.34636872 0.11257538 0.10000000)
		(2.36312849 0.13271097 0.10000000)
		(2.37988827 0.15171204 0.10000000)
		(2.39664804 0.16941614 0.10000000)
		(2.41340782 0.18567193 0.10000000)
		(2.43016760 0.20034043 0.10000000)
		(2.44692737 0.21329625 0.10000000)
		(2.46368715 0.22442863 0.10000000)
		(2.48044693 0.23364239 0.10000000)
		(2.49720670 0.24085878 0.10000000)
		(2.51396648 0.24601610 0.10000000)
		(2.53072626 0.24907027 0.10000000)
		(2.54748603 0.24999516 0.10000000)
		(2.56424581 0.24878288 0.10000000)
		(2.58100559 0.24544378 0.10000000)
		(2.59776536 0.24000642 0.10000000)
		(2.61452514 0.23251728 0.10000000)
		(2.63128492 0.22304038 0.10000000)
		(2.64804469 0.21165674 0.10000000)
		(2.66480447 0.19846367 0.10000000)
		(2.68156425 0.18357396 0.10000000)
		(2.69832402 0.16711490 0.10000000)
		(2.71508380 0.14922721 0.10000000)
		(2.73184358 0.13006378 0.10000000)
		(2.74860335 0.10978846 0.10000000)
		(2.76536313 0.08857457 0.10000000)
		(2.78212291 0.06660347 0.10000000)
		(2.79888268 0.04406299 0.10000000)
		(2.81564246 0.02114582 0.10000000)
		(2.83240223 -0.00195213 0.10000000)
		(2.84916201 -0.02503339 0.10000000)
		(2.86592179 -0.04790064 0.10000000)
		(2.88268156 -0.07035839 0.10000000)
		(2.89944134 -0.09221466 0.10000000)
		(2.91620112 -0.11328260 0.10000000)
		(2.93296089 -0.13338210 0.10000000)
		(2.95166480 -0.14619408 0.10000000)
		(2.97036872 -0.15765744 0.10000000)
		(2.98907263 -0.16777217 0.10000000)
		(3.00777654 -0.17653826 0.10000000)
		(3.02648045 -0.18395573 0.10000000)
		(3.04518436 -0.19002456 0.10000000)
		(3.06388827 -0.19474477 0.10000000)
		(3.08259218 -0.19811634 0.10000000)
		(3.10129609 -0.20013929 0.10000000)
		(3.12000000 -0.20081360 0.10000000)
		(3.14000000 -0.20081360 0.10000000)
		(3.16000000 -0.20081360 0.10000000)
		(3.18000000 -0.20081360 0.10000000)
		(3.20000000 -0.20081360 0.10000000)
		(3.22000000 -0.20081360 0.10000000)
		(3.24000000 -0.20081360 0.10000000)
		(3.26000000 -0.20081360 0.10000000)
		(3.28000000 -0.20081360 0.10000000)
		(3.30000000 -0.20081360 0.10000000)
		(3.32000000 -0.20081360 0.10000000)
		(3.34000000 -0.20081360 0.10000000)
		(3.36000000 -0.20081360 0.10000000)
		(3.38000000 -0.20081360 0.10000000)
		(3.40000000 -0.20081360 0.10000000)
		(3.42000000 -0.20081360 0.10000000)
		(3.44000000 -0.20081360 0.10000000)
		(3.46000000 -0.20081360 0.10000000)
		(3.48000000 -0.20081360 0.10000000)
		(3.50000000 -0.20081360 0.10000000)
		(3.52000000 -0.20081360 0.10000000)
		(3.54000000 -0.20081360 0.10000000)
		(3.56000000 -0.20081360 0.10000000)
		(3.58000000 -0.20081360 0.10000000)
		(3.60000000 -0.20081360 0.10000000)
		(3.62000000 -0.20081360 0.10000000)
		(3.64000000 -0.20081360 0.10000000)
		(3.66000000 -0.20081360 0.10000000)
		(3.68000000 -0.20081360 0.10000000)
		(3.70000000 -0.20081360 0.10000000)
		(3.72000000 -0.20081360 0.10000000)
		(3.74000000 -0.20081360 0.10000000)
		(3.76000000 -0.20081360 0.10000000)
		(3.78000000 -0.20081360 0.10000000)
		(3.80000000 -0.20081360 0.10000000)
		(3.82000000 -0.20081360 0.10000000)
		(3.84000000 -0.20081360 0.10000000)
		(3.86000000 -0.20081360 0.10000000)
		(3.88000000 -0.20081360 0.10000000)
		(3.90000000 -0.20081360 0.10000000)
		(3.92000000 -0.20081360 0.10000000)
		(3.94000000 -0.20081360 0.10000000)
		(3.96000000 -0.20081360 0.10000000)
		(3.98000000 -0.20081360 0.10000000)
		(4.00000000 -0.20081360 0.10000000)
	)
	polyLine 3 2
	(
		(-1.00000000 0.52108681 0.00000000)
		(-0.98000000 0.52141101 0.00000000)
		(-0.96000000 0.52173520 0.00000000)
		(-0.94000000 0.52205940 0.00000000)
		(-0.92000000 0.52238360 0.00000000)
		(-0.90000000 0.52270780 0.00000000)
		(-0.88000000 0.52303199 0.00000000)
		(-0.86000000 0.52335619 0.00000000)
		(-0.84000000 0.52368039 0.00000000)
		(-0.82000000 0.52400459 0.00000000)
		(-0.80000000 0.52432879 0.00000000)
		(-0.78000000 0.52465298 0.00000000)
		(-0.76000000 0.52497718 0.00000000)
		(-0.74000000 0.52530138 0.00000000)
		(-0.72000000 0.52562558 0.00000000)
		(-0.70000000 0.52594977 0.00000000)
		(-0.68000000 0.52627397 0.00000000)
		(-0.66000000 0.52659817 0.00000000)
		(-0.64000000 0.52692237 0.00000000)
		(-0.62000000 0.52724656 0.00000000)
		(-0.60000000 0.52757076 0.00000000)
		(-0.58000000 0.52789496 0.00000000)
		(-0.56000000 0.52821916 0.00000000)
		(-0.54000000 0.52854335 0.00000000)
		(-0.52000000 0.52886755 0.00000000)
		(-0.50000000 0.52919175 0.00000000)
		(-0.48000000 0.52951595 0.00000000)
		(-0.46000000 0.52984015 0.00000000)
		(-0.44000000 0.53016434 0.00000000)
		(-0.42000000 0.53048854 0.00000000)
		(-0.40000000 0.53081274 0.00000000)
		(-0.38000000 0.53113694 0.00000000)
		(-0.36000000 0.53146113 0.00000000)
		(-0.34000000 0.53178533 0.00000000)
		(-0.32000000 0.53210953 0.00000000)
		(-0.30000000 0.53243373 0.00000000)
		(-0.28000000 0.53275792 0.00000000)
		(-0.26000000 0.53308212 0.00000000)
		(-0.24000000 0.53340632 0.00000000)
		(-0.22000000 0.53373052 0.00000000)
		(-0.20000000 0.53405471 0.00000000)
		(-0.18000000 0.53437891 0.00000000)
		(-0.16000000 0.53470311 0.00000000)
		(-0.14000000 0.53502731 0.00000000)
		(-0.12000000 0.53535151 0.00000000)
		(-0.10000000 0.53567570 0.00000000)
		(-0.08162011 0.53462357 0.00000000)
		(-0.06324022 0.53807820 0.00000000)
		(-0.04486034 0.54603957 0.00000000)
		(-0.02648045 0.55850770 0.00000000)
		(-0.00810056 0.57548258 0.00000000)
		(0.01027933 0.59696421 0.00000000)
		(0.02865922 0.62295260 0.00000000)
		(0.04703911 0.65344774 0.00000000)
		(0.06541899 0.68844963 0.00000000)
		(0.08379888 0.72795827 0.00000000)
		(0.10055866 0.76156377 0.00000000)
		(0.11731844 0.79293320 0.00000000)
		(0.13407821 0.82179838 0.00000000)
		(0.15083799 0.84791254 0.00000000)
		(0.16759777 0.87105245 0.00000000)
		(0.18435754 0.89102029 0.00000000)
		(0.20111732 0.90764534 0.00000000)
		(0.21787709 0.92078549 0.00000000)
		(0.23463687 0.93032840 0.00000000)
		(0.25139665 0.93619249 0.00000000)
		(0.26815642 0.93832762 0.00000000)
		(0.28491620 0.93671556 0.00000000)
		(0.30167598 0.93137007 0.00000000)
		(0.31843575 0.92233686 0.00000000)
		(0.33519553 0.90969314 0.00000000)
		(0.35195531 0.89354701 0.00000000)
		(0.36871508 0.87403651 0.00000000)
		(0.38547486 0.85132841 0.00000000)
		(0.40223464 0.82561686 0.00000000)
		(0.41899441 0.79712165 0.00000000)
		(0.43575419 0.76608639 0.00000000)
		(0.45251397 0.73277639 0.00000000)
		(0.46927374 0.69747642 0.00000000)
		(0.48603352 0.66048824 0.00000000)
		(0.50279330 0.62212808 0.00000000)
		(0.51955307 0.58272386 0.00000000)
		(0.53631285 0.54261244 0.00000000)
		(0.55307263 0.50213673 0.00000000)
		(0.56983240 0.46164276 0.00000000)
		(0.58659218 0.42147670 0.00000000)
		(0.60335196 0.38198193 0.00000000)
		(0.62011173 0.34349607 0.00000000)
		(0.63687151 0.30634815 0.00000000)
		(0.65363128 0.27085573 0.00000000)
		(0.67039106 0.23732223 0.00000000)
		(0.68715084 0.20603433 0.00000000)
		(0.70391061 0.17725951 0.00000000)
		(0.72067039 0.15124375 0.00000000)
		(0.73743017 0.12820945 0.00000000)
		(0.75418994 0.10835355 0.00000000)
		(0.77094972 0.09184578 0.00000000)
		(0.78770950 0.07882727 0.00000000)
		(0.80446927 0.06940930 0.00000000)
		(0.82122905 0.06367240 0.00000000)
		(0.83798883 0.06166560 0.00000000)
		(0.85474860 0.06340607 0.00000000)
		(0.87150838 0.06887891 0.00000000)
		(0.88826816 0.07803736 0.00000000)
		(0.90502793 0.09080310 0.00000000)
		(0.92178771 0.10706702 0.00000000)
		(0.93854749 0.12669007 0.00000000)
		(0.95530726 0.14950449 0.00000000)
		(0.97206704 0.17531525 0.00000000)
		(0.98882682 0.20390170 0.00000000)
		(1.00558659 0.23501945 0.00000000)
		(1.02234637 0.26840249 0.00000000)
		(1.03910615 0.30376542 0.00000000)
		(1.05586592 0.34080594 0.00000000)
		(1.07262570 0.37920738 0.00000000)
		(1.08938547 0.41864147 0.00000000)
		(1.10614525 0.45877107 0.00000000)
		(1.12290503 0.49925314 0.00000000)
		(1.13966480 0.53974159 0.00000000)
		(1.15642458 0.57989030 0.00000000)
		(1.17318436 0.61935604 0.00000000)
		(1.18994413 0.65780141 0.00000000)
		(1.20670391 0.69489777 0.00000000)
		(1.22346369 0.73032797 0.00000000)
		(1.24022346 0.76378912 0.00000000)
		(1.25698324 0.79499518 0.00000000)
		(1.27374302 0.82367937 0.00000000)
		(1.29050279 0.84959646 0.00000000)
		(1.30726257 0.87252490 0.00000000)
		(1.32402235 0.89226867 0.00000000)
		(1.34078212 0.90865899 0.00000000)
		(1.35754190 0.92155574 0.00000000)
		(1.37430168 0.93084867 0.00000000)
		(1.39106145 0.93645833 0.00000000)
		(1.40782123 0.93833677 0.00000000)
		(1.42458101 0.93646792 0.00000000)
		(1.44134078 0.93086777 0.00000000)
		(1.45810056 0.92158419 0.00000000)
		(1.47486034 0.90869654 0.00000000)
		(1.49162011 0.89231500 0.00000000)
		(1.50837989 0.87257961 0.00000000)
		(1.52513966 0.84965909 0.00000000)
		(1.54189944 0.82374937 0.00000000)
		(1.55865922 0.79507197 0.00000000)
		(1.57541899 0.76387204 0.00000000)
		(1.59217877 0.73041630 0.00000000)
		(1.60893855 0.69499077 0.00000000)
		(1.62569832 0.65789828 0.00000000)
		(1.64245810 0.61945594 0.00000000)
		(1.65921788 0.57999239 0.00000000)
		(1.67597765 0.53984500 0.00000000)
		(1.69273743 0.49935697 0.00000000)
		(1.70949721 0.45887445 0.00000000)
		(1.72625698 0.41874350 0.00000000)
		(1.74301676 0.37930720 0.00000000)
		(1.75977654 0.34090269 0.00000000)
		(1.77653631 0.30385827 0.00000000)
		(1.79329609 0.26849065 0.00000000)
		(1.81005587 0.23510217 0.00000000)
		(1.82681564 0.20397827 0.00000000)
		(1.84357542 0.17538502 0.00000000)
		(1.86033520 0.14956685 0.00000000)
		(1.87709497 0.12674450 0.00000000)
		(1.89385475 0.10711305 0.00000000)
		(1.91061453 0.09084034 0.00000000)
		(1.92737430 0.07806548 0.00000000)
		(1.94413408 0.06889769 0.00000000)
		(1.96089385 0.06341533 0.00000000)
		(1.97765363 0.06166527 0.00000000)
		(1.99441341 0.06366248 0.00000000)
		(2.01117318 0.06938988 0.00000000)
		(2.02793296 0.07879851 0.00000000)
		(2.04469274 0.09180793 0.00000000)
		(2.06145251 0.10830693 0.00000000)
		(2.07821229 0.12815446 0.00000000)
		(2.09497207 0.15118086 0.00000000)
		(2.11173184 0.17718925 0.00000000)
		(2.12849162 0.20595732 0.00000000)
		(2.14525140 0.23723912 0.00000000)
		(2.16201117 0.27076722 0.00000000)
		(2.17877095 0.30625500 0.00000000)
		(2.19553073 0.34339909 0.00000000)
		(2.21229050 0.38188193 0.00000000)
		(2.22905028 0.42137455 0.00000000)
		(2.24581006 0.46153933 0.00000000)
		(2.26256983 0.50203290 0.00000000)
		(2.27932961 0.54250910 0.00000000)
		(2.29608939 0.58262189 0.00000000)
		(2.31284916 0.62202835 0.00000000)
		(2.32960894 0.66039161 0.00000000)
		(2.34636872 0.69738371 0.00000000)
		(2.36312849 0.73268840 0.00000000)
		(2.37988827 0.76600387 0.00000000)
		(2.39664804 0.79704530 0.00000000)
		(2.41340782 0.82554734 0.00000000)
		(2.43016760 0.85126631 0.00000000)
		(2.44692737 0.87398236 0.00000000)
		(2.46368715 0.89350128 0.00000000)
		(2.48044693 0.90965621 0.00000000)
		(2.49720670 0.92230905 0.00000000)
		(2.51396648 0.93135162 0.00000000)
		(2.53072626 0.93670662 0.00000000)