/*--------------------------------*- C++ -*----------------------------------*\\
/*--------------------------------*- C++ -*----------------------------------*\\
| =========                 |                                                 |
| \\\\      /  F ield         | OpenFOAM: The Open Source CFD Toolbox           |
|  \\\\    /   O peration     | Version:  v2012                                 |
|   \\\\  /    A nd           | Website:  www.openfoam.com                      |
|    \\\\/     M anipulation  |                                                 |
\\*---------------------------------------------------------------------------*/
FoamFile
{
    version     2.0;
    format      ascii;
    class       dictionary;
    object      blockMeshDict;
}
// * * * * * * * * * * * * * * * * * * * * * * * * * * * * * * * * * * * * * //

scale   0.01;

xmin -1;
xmax 5;
ymin 0;
ymax 0.5;
zmin 0;
zmax 0.1;

vertices
(
    (-1.00000000 -0.01117241 0.00000000)
    (4.00000000 0.15134657 0.00000000)
    (4.00000000 0.65134657 0.00000000)
    (-1.00000000 0.48882759 0.00000000)
    (-1.00000000 -0.01117241 0.10000000)
    (4.00000000 0.15134657 0.10000000)
    (4.00000000 0.65134657 0.10000000)
    (-1.00000000 0.48882759 0.10000000)
);

blocks
(
    hex (0 1 2 3 4 5 6 7) (200 20 1) simpleGrading (1 1 1)
);

edges
(
	polyLine 0 1
	(
		(-1.00000000 -0.01117241 0.00000000)
		(-0.98000000 -0.01117241 0.00000000)
		(-0.96000000 -0.01117241 0.00000000)
		(-0.94000000 -0.01117241 0.00000000)
		(-0.92000000 -0.01117241 0.00000000)
		(-0.90000000 -0.01117241 0.00000000)
		(-0.88000000 -0.01117241 0.00000000)
		(-0.86000000 -0.01117241 0.00000000)
		(-0.84000000 -0.01117241 0.00000000)
		(-0.82000000 -0.01117241 0.00000000)
		(-0.80000000 -0.01117241 0.00000000)
		(-0.78000000 -0.01117241 0.00000000)
		(-0.76000000 -0.01117241 0.00000000)
		(-0.74000000 -0.01117241 0.00000000)
		(-0.72000000 -0.01117241 0.00000000)
		(-0.70000000 -0.01117241 0.00000000)
		(-0.68000000 -0.01117241 0.00000000)
		(-0.66000000 -0.01117241 0.00000000)
		(-0.64000000 -0.01117241 0.00000000)
		(-0.62000000 -0.01117241 0.00000000)
		(-0.60000000 -0.01117241 0.00000000)
		(-0.58000000 -0.01117241 0.00000000)
		(-0.56000000 -0.01117241 0.00000000)
		(-0.54000000 -0.01117241 0.00000000)
		(-0.52000000 -0.01117241 0.00000000)
		(-0.50000000 -0.01117241 0.00000000)
		(-0.48000000 -0.01117241 0.00000000)
		(-0.46000000 -0.01117241 0.00000000)
		(-0.44000000 -0.01117241 0.00000000)
		(-0.42000000 -0.01117241 0.00000000)
		(-0.40000000 -0.01117241 0.00000000)
		(-0.38000000 -0.01117241 0.00000000)
		(-0.36000000 -0.01117241 0.00000000)
		(-0.34000000 -0.01117241 0.00000000)
		(-0.32000000 -0.01117241 0.00000000)
		(-0.30000000 -0.01117241 0.00000000)
		(-0.28000000 -0.01117241 0.00000000)
		(-0.26000000 -0.01117241 0.00000000)
		(-0.24000000 -0.01117241 0.00000000)
		(-0.22000000 -0.01117241 0.00000000)
		(-0.20000000 -0.01117241 0.00000000)
		(-0.18000000 -0.01117241 0.00000000)
		(-0.16000000 -0.01117241 0.00000000)
		(-0.14000000 -0.01117241 0.00000000)
		(-0.12000000 -0.01117241 0.00000000)
		(-0.10000000 -0.01117241 0.00000000)
		(-0.08162011 -0.01026070 0.00000000)
		(-0.06324022 -0.00752557 0.00000000)
		(-0.04486034 -0.00296702 0.00000000)
		(-0.02648045 0.00341495 0.00000000)
		(-0.00810056 0.01162034 0.00000000)
		(0.01027933 0.02164916 0.00000000)
		(0.02865922 0.03350139 0.00000000)
		(0.04703911 0.04717704 0.00000000)
		(0.06541899 0.06267611 0.00000000)
		(0.08379888 0.07999860 0.00000000)
		(0.10055866 0.09731065 0.00000000)
		(0.11731844 0.11408884 0.00000000)
		(0.13407821 0.13024111 0.00000000)
		(0.15083799 0.14567886 0.00000000)
		(0.16759777 0.16031739 0.00000000)
		(0.18435754 0.17407640 0.00000000)
		(0.20111732 0.18688039 0.00000000)
		(0.21787709 0.19865912 0.00000000)
		(0.23463687 0.20934798 0.00000000)
		(0.25139665 0.21888831 0.00000000)
		(0.26815642 0.22722779 0.00000000)
		(0.28491620 0.23432066 0.00000000)
		(0.30167598 0.24012801 0.00000000)
		(0.31843575 0.24461797 0.00000000)
		(0.33519553 0.24776592 0.00000000)
		(0.35195531 0.24955458 0.00000000)
		(0.36871508 0.24997414 0.00000000)
		(0.38547486 0.24902230 0.00000000)
		(0.40223464 0.24670429 0.00000000)
		(0.41899441 0.24303281 0.00000000)
		(0.43575419 0.23802801 0.00000000)
		(0.45251397 0.23171736 0.00000000)
		(0.46927374 0.22413546 0.00000000)
		(0.48603352 0.21532391 0.00000000)
		(0.50279330 0.20533107 0.00000000)
		(0.51955307 0.19421174 0.00000000)
		(0.53631285 0.18202693 0.00000000)
		(0.55307263 0.16884349 0.00000000)
		(0.56983240 0.15473375 0.00000000)
		(0.58659218 0.13977511 0.00000000)
		(0.60335196 0.12404965 0.00000000)
		(0.62011173 0.10764362 0.00000000)
		(0.63687151 0.09064705 0.00000000)
		(0.65363128 0.07315316 0.00000000)
		(0.67039106 0.05525795 0.00000000)
		(0.68715084 0.03705959 0.00000000)
		(0.70391061 0.01865791 0.00000000)
		(0.72067039 0.00015387 0.00000000)
		(0.73743017 -0.01835102 0.00000000)
		(0.75418994 -0.03675523 0.00000000)
		(0.77094972 -0.05495779 0.00000000)
		(0.78770950 -0.07285885 0.00000000)
		(0.80446927 -0.09036019 0.00000000)
		(0.82122905 -0.10736580 0.00000000)
		(0.83798883 -0.12378238 0.00000000)
		(0.85474860 -0.13951987 0.00000000)
		(0.87150838 -0.15449193 0.00000000)
		(0.88826816 -0.16861642 0.00000000)
		(0.90502793 -0.18181585 0.00000000)
		(0.92178771 -0.19401781 0.00000000)
		(0.93854749 -0.20515536 0.00000000)
		(0.95530726 -0.21516739 0.00000000)
		(0.97206704 -0.22399898 0.00000000)
		(0.98882682 -0.23160166 0.00000000)
		(1.00558659 -0.23793375 0.00000000)
		(1.02234637 -0.24296048 0.00000000)
		(1.03910615 -0.24665430 0.00000000)
		(1.05586592 -0.24899493 0.00000000)
		(1.07262570 -0.24996953 0.00000000)
		(1.08938547 -0.24957275 0.00000000)
		(1.10614525 -0.24780678 0.00000000)
		(1.12290503 -0.24468129 0.00000000)
		(1.13966480 -0.24021345 0.00000000)
		(1.15642458 -0.23442775 0.00000000)
		(1.17318436 -0.22735594 0.00000000)
		(1.18994413 -0.21903682 0.00000000)
		(1.20670391 -0.20951602 0.00000000)
		(1.22346369 -0.19884579 0.00000000)
		(1.24022346 -0.18708465 0.00000000)
		(1.25698324 -0.17429714 0.00000000)
		(1.27374302 -0.16055340 0.00000000)
		(1.29050279 -0.14592884 0.00000000)
		(1.30726257 -0.13050369 0.00000000)
		(1.32402235 -0.11436257 0.00000000)
		(1.34078212 -0.09759404 0.00000000)
		(1.35754190 -0.08029009 0.00000000)
		(1.37430168 -0.06254566 0.00000000)
		(1.39106145 -0.04445809 0.00000000)
		(1.40782123 -0.02612662 0.00000000)
		(1.42458101 -0.00765181 0.00000000)
		(1.44134078 0.01086498 0.00000000)
		(1.45810056 0.02932216 0.00000000)
		(1.47486034 0.04761847 0.00000000)
		(1.49162011 0.06565354 0.00000000)
		(1.50837989 0.08332842 0.00000000)
		(1.52513966 0.10054616 0.00000000)
		(1.54189944 0.11721227 0.00000000)
		(1.55865922 0.13323534 0.00000000)
		(1.57541899 0.14852746 0.00000000)
		(1.59217877 0.16300473 0.00000000)
		(1.60893855 0.17658773 0.00000000)
		(1.62569832 0.18920195 0.00000000)
		(1.64245810 0.20077816 0.00000000)
		(1.65921788 0.21125288 0.00000000)
		(1.67597765 0.22056862 0.00000000)
		(1.69273743 0.22867429 0.00000000)
		(1.70949721 0.23552541 0.00000000)
		(1.72625698 0.24108440 0.00000000)
		(1.74301676 0.24532076 0.00000000)
		(1.75977654 0.24821125 0.00000000)
		(1.77653631 0.24974001 0.00000000)
		(1.79329609 0.24989865 0.00000000)
		(1.81005587 0.24868631 0.00000000)
		(1.82681564 0.24610963 0.00000000)
		(1.84357542 0.24218275 0.00000000)
		(1.86033520 0.23692722 0.00000000)
		(1.87709497 0.23037187 0.00000000)
		(1.89385475 0.22255265 0.00000000)
		(1.91061453 0.21351248 0.00000000)
		(1.92737430 0.20330093 0.00000000)
		(1.94413408 0.19197405 0.00000000)
		(1.96089385 0.17959396 0.00000000)
		(1.97765363 0.16622859 0.00000000)
		(1.99441341 0.15195127 0.00000000)
		(2.01117318 0.13684031 0.00000000)
		(2.02793296 0.12097862 0.00000000)
		(2.04469274 0.10445322 0.00000000)
		(2.06145251 0.08735478 0.00000000)
		(2.07821229 0.06977709 0.00000000)
		(2.09497207 0.05181659 0.00000000)
		(2.11173184 0.03357182 0.00000000)
		(2.12849162 0.01514287 0.00000000)
		(2.14525140 -0.00336916 0.00000000)
		(2.16201117 -0.02186270 0.00000000)
		(2.17877095 -0.04023630 0.00000000)
		(2.19553073 -0.05838916 0.00000000)
		(2.21229050 -0.07622169 0.00000000)
		(2.22905028 -0.09363605 0.00000000)
		(2.24581006 -0.11053671 0.00000000)
		(2.26256983 -0.12683094 0.00000000)
		(2.27932961 -0.14242936 0.00000000)
		(2.29608939 -0.15724639 0.00000000)
		(2.31284916 -0.17120074 0.00000000)
		(2.32960894 -0.18421585 0.00000000)
		(2.34636872 -0.19622032 0.00000000)
		(2.36312849 -0.20714829 0.00000000)
		(2.37988827 -0.21693981 0.00000000)
		(2.39664804 -0.22554117 0.00000000)
		(2.41340782 -0.23290517 0.00000000)
		(2.43016760 -0.23899141 0.00000000)
		(2.44692737 -0.24376650 0.00000000)
		(2.46368715 -0.24720425 0.00000000)
		(2.48044693 -0.24928579 0.00000000)
		(2.49720670 -0.24999971 0.00000000)
		(2.51396648 -0.24934209 0.00000000)
		(2.53072626 -0.24731654 0.00000000)
		(2.54748603 -0.24393416 0.00000000)
		(2.56424581 -0.23921352 0.00000000)
		(2.58100559 -0.23318052 0.00000000)
		(2.59776536 -0.22586825 0.00000000)
		(2.61452514 -0.21731683 0.00000000)
		(2.63128492 -0.20757317 0.00000000)
		(2.64804469 -0.19669072 0.00000000)
		(2.66480447 -0.18472920 0.00000000)
		(2.68156425 -0.17175423 0.00000000)
		(2.69832402 -0.15783698 0.00000000)
		(2.71508380 -0.14305381 0.00000000)
		(2.73184358 -0.12748582 0.00000000)
		(2.74860335 -0.11121843 0.00000000)
		(2.76536313 -0.09434087 0.00000000)
		(2.78212291 -0.07694574 0.00000000)
		(2.79888268 -0.05912848 0.00000000)
		(2.81564246 -0.04098682 0.00000000)
		(2.83240223 -0.02262031 0.00000000)
		(2.84916201 -0.00412969 0.00000000)
		(2.86592179 0.01438358 0.00000000)
		(2.88268156 0.03281794 0.00000000)
		(2.89944134 0.05107225 0.00000000)
		(2.91620112 0.06904638 0.00000000)
		(2.93296089 0.08664170 0.00000000)
		(2.95166480 0.09893562 0.00000000)
		(2.97036872 0.10993545 0.00000000)
		(2.98907263 0.11964118 0.00000000)
		(3.00777654 0.12805281 0.00000000)
		(3.02648045 0.13517035 0.00000000)
		(3.04518436 0.14099379 0.00000000)
		(3.06388827 0.14552313 0.00000000)
		(3.08259218 0.14875837 0.00000000)
		(3.10129609 0.15069952 0.00000000)
		(3.12000000 0.15134657 0.00000000)
		(3.14000000 0.15134657 0.00000000)
		(3.16000000 0.15134657 0.00000000)
		(3.18000000 0.15134657 0.00000000)
		(3.20000000 0.15134657 0.00000000)
		(3.22000000 0.15134657 0.00000000)
		(3.24000000 0.15134657 0.00000000)
		(3.26000000 0.15134657 0.00000000)
		(3.28000000 0.15134657 0.00000000)
		(3.30000000 0.15134657 0.00000000)
		(3.32000000 0.15134657 0.00000000)
		(3.34000000 0.15134657 0.00000000)
		(3.36000000 0.15134657 0.00000000)
		(3.38000000 0.15134657 0.00000000)
		(3.40000000 0.15134657 0.00000000)
		(3.42000000 0.15134657 0.00000000)
		(3.44000000 0.15134657 0.00000000)
		(3.46000000 0.15134657 0.00000000)
		(3.48000000 0.15134657 0.00000000)
		(3.50000000 0.15134657 0.00000000)
		(3.52000000 0.15134657 0.00000000)
		(3.54000000 0.15134657 0.00000000)
		(3.56000000 0.15134657 0.00000000)
		(3.58000000 0.15134657 0.00000000)
		(3.60000000 0.15134657 0.00000000)
		(3.62000000 0.15134657 0.00000000)
		(3.64000000 0.15134657 0.00000000)
		(3.66000000 0.15134657 0.00000000)
		(3.68000000 0.15134657 0.00000000)
		(3.70000000 0.15134657 0.00000000)
		(3.72000000 0.15134657 0.00000000)
		(3.74000000 0.15134657 0.00000000)
		(3.76000000 0.15134657 0.00000000)
		(3.78000000 0.15134657 0.00000000)
		(3.80000000 0.15134657 0.00000000)
		(3.82000000 0.15134657 0.00000000)
		(3.84000000 0.15134657 0.00000000)
		(3.86000000 0.15134657 0.00000000)
		(3.88000000 0.15134657 0.00000000)
		(3.90000000 0.15134657 0.00000000)
		(3.92000000 0.15134657 0.00000000)
		(3.94000000 0.15134657 0.00000000)
		(3.96000000 0.15134657 0.00000000)
		(3.98000000 0.15134657 0.00000000)
		(4.00000000 0.15134657 0.00000000)
	)
	polyLine 4 5
	(
		(-1.00000000 -0.01117241 0.10000000)
		(-0.98000000 -0.01117241 0.10000000)
		(-0.96000000 -0.01117241 0.10000000)
		(-0.94000000 -0.01117241 0.10000000)
		(-0.92000000 -0.01117241 0.10000000)
		(-0.90000000 -0.01117241 0.10000000)
		(-0.88000000 -0.01117241 0.10000000)
		(-0.86000000 -0.01117241 0.10000000)
		(-0.84000000 -0.01117241 0.10000000)
		(-0.82000000 -0.01117241 0.10000000)
		(-0.80000000 -0.01117241 0.10000000)
		(-0.78000000 -0.01117241 0.10000000)
		(-0.76000000 -0.01117241 0.10000000)
		(-0.74000000 -0.01117241 0.10000000)
		(-0.72000000 -0.01117241 0.10000000)
		(-0.70000000 -0.01117241 0.10000000)
		(-0.68000000 -0.01117241 0.10000000)
		(-0.66000000 -0.01117241 0.10000000)
		(-0.64000000 -0.01117241 0.10000000)
		(-0.62000000 -0.01117241 0.10000000)
		(-0.60000000 -0.01117241 0.10000000)
		(-0.58000000 -0.01117241 0.10000000)
		(-0.56000000 -0.01117241 0.10000000)
		(-0.54000000 -0.01117241 0.10000000)
		(-0.52000000 -0.01117241 0.10000000)
		(-0.50000000 -0.01117241 0.10000000)
		(-0.48000000 -0.01117241 0.10000000)
		(-0.46000000 -0.01117241 0.10000000)
		(-0.44000000 -0.01117241 0.10000000)
		(-0.42000000 -0.01117241 0.10000000)
		(-0.40000000 -0.01117241 0.10000000)
		(-0.38000000 -0.01117241 0.10000000)
		(-0.36000000 -0.01117241 0.10000000)
		(-0.34000000 -0.01117241 0.10000000)
		(-0.32000000 -0.01117241 0.10000000)
		(-0.30000000 -0.01117241 0.10000000)
		(-0.28000000 -0.01117241 0.10000000)
		(-0.26000000 -0.01117241 0.10000000)
		(-0.24000000 -0.01117241 0.10000000)
		(-0.22000000 -0.01117241 0.10000000)
		(-0.20000000 -0.01117241 0.10000000)
		(-0.18000000 -0.01117241 0.10000000)
		(-0.16000000 -0.01117241 0.10000000)
		(-0.14000000 -0.01117241 0.10000000)
		(-0.12000000 -0.01117241 0.10000000)
		(-0.10000000 -0.01117241 0.10000000)
		(-0.08162011 -0.01026070 0.10000000)
		(-0.06324022 -0.00752557 0.10000000)
		(-0.04486034 -0.00296702 0.10000000)
		(-0.02648045 0.00341495 0.10000000)
		(-0.00810056 0.01162034 0.10000000)
		(0.01027933 0.02164916 0.10000000)
		(0.02865922 0.03350139 0.10000000)
		(0.04703911 0.04717704 0.10000000)
		(0.06541899 0.06267611 0.10000000)
		(0.08379888 0.07999860 0.10000000)
		(0.10055866 0.09731065 0.10000000)
		(0.11731844 0.11408884 0.10000000)
		(0.13407821 0.13024111 0.10000000)
		(0.15083799 0.14567886 0.10000000)
		(0.16759777 0.16031739 0.10000000)
		(0.18435754 0.17407640 0.10000000)
		(0.20111732 0.18688039 0.10000000)
		(0.21787709 0.19865912 0.10000000)
		(0.23463687 0.20934798 0.10000000)
		(0.25139665 0.21888831 0.10000000)
		(0.26815642 0.22722779 0.10000000)
		(0.28491620 0.23432066 0.10000000)
		(0.30167598 0.24012801 0.10000000)
		(0.31843575 0.24461797 0.10000000)
		(0.33519553 0.24776592 0.10000000)
		(0.35195531 0.24955458 0.10000000)
		(0.36871508 0.24997414 0.10000000)
		(0.38547486 0.24902230 0.10000000)
		(0.40223464 0.24670429 0.10000000)
		(0.41899441 0.24303281 0.10000000)
		(0.43575419 0.23802801 0.10000000)
		(0.45251397 0.23171736 0.10000000)
		(0.46927374 0.22413546 0.10000000)
		(0.48603352 0.21532391 0.10000000)
		(0.50279330 0.20533107 0.10000000)
		(0.51955307 0.19421174 0.10000000)
		(0.53631285 0.18202693 0.10000000)
		(0.55307263 0.16884349 0.10000000)
		(0.56983240 0.15473375 0.10000000)
		(0.58659218 0.13977511 0.10000000)
		(0.60335196 0.12404965 0.10000000)
		(0.62011173 0.10764362 0.10000000)
		(0.63687151 0.09064705 0.10000000)
		(0.65363128 0.07315316 0.10000000)
		(0.67039106 0.05525795 0.10000000)
		(0.68715084 0.03705959 0.10000000)
		(0.70391061 0.01865791 0.10000000)
		(0.72067039 0.00015387 0.10000000)
		(0.73743017 -0.01835102 0.10000000)
		(0.75418994 -0.03675523 0.10000000)
		(0.77094972 -0.05495779 0.10000000)
		(0.78770950 -0.07285885 0.10000000)
		(0.80446927 -0.09036019 0.10000000)
		(0.82122905 -0.10736580 0.10000000)
		(0.83798883 -0.12378238 0.10000000)
		(0.85474860 -0.13951987 0.10000000)
		(0.87150838 -0.15449193 0.10000000)
		(0.88826816 -0.16861642 0.10000000)
		(0.90502793 -0.18181585 0.10000000)
		(0.92178771 -0.19401781 0.10000000)
		(0.93854749 -0.20515536 0.10000000)
		(0.95530726 -0.21516739 0.10000000)
		(0.97206704 -0.22399898 0.10000000)
		(0.98882682 -0.23160166 0.10000000)
		(1.00558659 -0.23793375 0.10000000)
		(1.02234637 -0.24296048 0.10000000)
		(1.03910615 -0.24665430 0.10000000)
		(1.05586592 -0.24899493 0.10000000)
		(1.07262570 -0.24996953 0.10000000)
		(1.08938547 -0.24957275 0.10000000)
		(1.10614525 -0.24780678 0.10000000)
		(1.12290503 -0.24468129 0.10000000)
		(1.13966480 -0.24021345 0.10000000)
		(1.15642458 -0.23442775 0.10000000)
		(1.17318436 -0.22735594 0.10000000)
		(1.18994413 -0.21903682 0.10000000)
		(1.20670391 -0.20951602 0.10000000)
		(1.22346369 -0.19884579 0.10000000)
		(1.24022346 -0.18708465 0.10000000)
		(1.25698324 -0.17429714 0.10000000)
		(1.27374302 -0.16055340 0.10000000)
		(1.29050279 -0.14592884 0.10000000)
		(1.30726257 -0.13050369 0.10000000)
		(1.32402235 -0.11436257 0.10000000)
		(1.34078212 -0.09759404 0.10000000)
		(1.35754190 -0.08029009 0.10000000)
		(1.37430168 -0.06254566 0.10000000)
		(1.39106145 -0.04445809 0.10000000)
		(1.40782123 -0.02612662 0.10000000)
		(1.42458101 -0.00765181 0.10000000)
		(1.44134078 0.01086498 0.10000000)
		(1.45810056 0.02932216 0.10000000)
		(1.47486034 0.04761847 0.10000000)
		(1.49162011 0.06565354 0.10000000)
		(1.50837989 0.08332842 0.10000000)
		(1.52513966 0.10054616 0.10000000)
		(1.54189944 0.11721227 0.10000000)
		(1.55865922 0.13323534 0.10000000)
		(1.57541899 0.14852746 0.10000000)
		(1.59217877 0.16300473 0.10000000)
		(1.60893855 0.17658773 0.10000000)
		(1.62569832 0.18920195 0.10000000)
		(1.64245810 0.20077816 0.10000000)
		(1.65921788 0.21125288 0.10000000)
		(1.67597765 0.22056862 0.10000000)
		(1.69273743 0.22867429 0.10000000)
		(1.70949721 0.23552541 0.10000000)
		(1.72625698 0.24108440 0.10000000)
		(1.74301676 0.24532076 0.10000000)
		(1.75977654 0.24821125 0.10000000)
		(1.77653631 0.24974001 0.10000000)
		(1.79329609 0.24989865 0.10000000)
		(1.81005587 0.24868631 0.10000000)
		(1.82681564 0.24610963 0.10000000)
		(1.84357542 0.24218275 0.10000000)
		(1.86033520 0.23692722 0.10000000)
		(1.87709497 0.23037187 0.10000000)
		(1.89385475 0.22255265 0.10000000)
		(1.91061453 0.21351248 0.10000000)
		(1.92737430 0.20330093 0.10000000)
		(1.94413408 0.19197405 0.10000000)
		(1.96089385 0.17959396 0.10000000)
		(1.97765363 0.16622859 0.10000000)
		(1.99441341 0.15195127 0.10000000)
		(2.01117318 0.13684031 0.10000000)
		(2.02793296 0.12097862 0.10000000)
		(2.04469274 0.10445322 0.10000000)
		(2.06145251 0.08735478 0.10000000)
		(2.07821229 0.06977709 0.10000000)
		(2.09497207 0.05181659 0.10000000)
		(2.11173184 0.03357182 0.10000000)
		(2.12849162 0.01514287 0.10000000)
		(2.14525140 -0.00336916 0.10000000)
		(2.16201117 -0.02186270 0.10000000)
		(2.17877095 -0.04023630 0.10000000)
		(2.19553073 -0.05838916 0.10000000)
		(2.21229050 -0.07622169 0.10000000)
		(2.22905028 -0.09363605 0.10000000)
		(2.24581006 -0.11053671 0.10000000)
		(2.26256983 -0.12683094 0.10000000)
		(2.27932961 -0.14242936 0.10000000)
		(2.29608939 -0.15724639 0.10000000)
		(2.31284916 -0.17120074 0.10000000)
		(2.32960894 -0.18421585 0.10000000)
		(2.34636872 -0.19622032 0.10000000)
		(2.36312849 -0.20714829 0.10000000)
		(2.37988827 -0.21693981 0.10000000)
		(2.39664804 -0.22554117 0.10000000)
		(2.41340782 -0.23290517 0.10000000)
		(2.43016760 -0.23899141 0.10000000)
		(2.44692737 -0.24376650 0.10000000)
		(2.46368715 -0.24720425 0.10000000)
		(2.48044693 -0.24928579 0.10000000)
		(2.49720670 -0.24999971 0.10000000)
		(2.51396648 -0.24934209 0.10000000)
		(2.53072626 -0.24731654 0.10000000)
		(2.54748603 -0.24393416 0.10000000)
		(2.56424581 -0.23921352 0.10000000)
		(2.58100559 -0.23318052 0.10000000)
		(2.59776536 -0.22586825 0.10000000)
		(2.61452514 -0.21731683 0.10000000)
		(2.63128492 -0.20757317 0.10000000)
		(2.64804469 -0.19669072 0.10000000)
		(2.66480447 -0.18472920 0.10000000)
		(2.68156425 -0.17175423 0.10000000)
		(2.69832402 -0.15783698 0.10000000)
		(2.71508380 -0.14305381 0.10000000)
		(2.73184358 -0.12748582 0.10000000)
		(2.74860335 -0.11121843 0.10000000)
		(2.76536313 -0.09434087 0.10000000)
		(2.78212291 -0.07694574 0.10000000)
		(2.79888268 -0.05912848 0.10000000)
		(2.81564246 -0.04098682 0.10000000)
		(2.83240223 -0.02262031 0.10000000)
		(2.84916201 -0.00412969 0.10000000)
		(2.86592179 0.01438358 0.10000000)
		(2.88268156 0.03281794 0.10000000)
		(2.89944134 0.05107225 0.10000000)
		(2.91620112 0.06904638 0.10000000)
		(2.93296089 0.08664170 0.10000000)
		(2.95166480 0.09893562 0.10000000)
		(2.97036872 0.10993545 0.10000000)
		(2.98907263 0.11964118 0.10000000)
		(3.00777654 0.12805281 0.10000000)
		(3.02648045 0.13517035 0.10000000)
		(3.04518436 0.14099379 0.10000000)
		(3.06388827 0.14552313 0.10000000)
		(3.08259218 0.14875837 0.10000000)
		(3.10129609 0.15069952 0.10000000)
		(3.12000000 0.15134657 0.10000000)
		(3.14000000 0.15134657 0.10000000)
		(3.16000000 0.15134657 0.10000000)
		(3.18000000 0.15134657 0.10000000)
		(3.20000000 0.15134657 0.10000000)
		(3.22000000 0.15134657 0.10000000)
		(3.24000000 0.15134657 0.10000000)
		(3.26000000 0.15134657 0.10000000)
		(3.28000000 0.15134657 0.10000000)
		(3.30000000 0.15134657 0.10000000)
		(3.32000000 0.15134657 0.10000000)
		(3.34000000 0.15134657 0.10000000)
		(3.36000000 0.15134657 0.10000000)
		(3.38000000 0.15134657 0.10000000)
		(3.40000000 0.15134657 0.10000000)
		(3.42000000 0.15134657 0.10000000)
		(3.44000000 0.15134657 0.10000000)
		(3.46000000 0.15134657 0.10000000)
		(3.48000000 0.15134657 0.10000000)
		(3.50000000 0.15134657 0.10000000)
		(3.52000000 0.15134657 0.10000000)
		(3.54000000 0.15134657 0.10000000)
		(3.56000000 0.15134657 0.10000000)
		(3.58000000 0.15134657 0.10000000)
		(3.60000000 0.15134657 0.10000000)
		(3.62000000 0.15134657 0.10000000)
		(3.64000000 0.15134657 0.10000000)
		(3.66000000 0.15134657 0.10000000)
		(3.68000000 0.15134657 0.10000000)
		(3.70000000 0.15134657 0.10000000)
		(3.72000000 0.15134657 0.10000000)
		(3.74000000 0.15134657 0.10000000)
		(3.76000000 0.15134657 0.10000000)
		(3.78000000 0.15134657 0.10000000)
		(3.80000000 0.15134657 0.10000000)
		(3.82000000 0.15134657 0.10000000)
		(3.84000000 0.15134657 0.10000000)
		(3.86000000 0.15134657 0.10000000)
		(3.88000000 0.15134657 0.10000000)
		(3.90000000 0.15134657 0.10000000)
		(3.92000000 0.15134657 0.10000000)
		(3.94000000 0.15134657 0.10000000)
		(3.96000000 0.15134657 0.10000000)
		(3.98000000 0.15134657 0.10000000)
		(4.00000000 0.15134657 0.10000000)
	)
	polyLine 3 2
	(
		(-1.00000000 0.48882759 0.00000000)
		(-0.98000000 0.48884556 0.00000000)
		(-0.96000000 0.48886353 0.00000000)
		(-0.94000000 0.48888150 0.00000000)
		(-0.92000000 0.48889947 0.00000000)
		(-0.90000000 0.48891744 0.00000000)
		(-0.88000000 0.48893541 0.00000000)
		(-0.86000000 0.48895338 0.00000000)
		(-0.84000000 0.48897135 0.00000000)
		(-0.82000000 0.48898932 0.00000000)
		(-0.80000000 0.48900729 0.00000000)
		(-0.78000000 0.48902526 0.00000000)
		(-0.76000000 0.48904323 0.00000000)
		(-0.74000000 0.48906121 0.00000000)
		(-0.72000000 0.48907918 0.00000000)
		(-0.70000000 0.48909715 0.00000000)
		(-0.68000000 0.48911512 0.00000000)
		(-0.66000000 0.48913309 0.00000000)
		(-0.64000000 0.48915106 0.00000000)
		(-0.62000000 0.48916903 0.00000000)
		(-0.60000000 0.48918700 0.00000000)
		(-0.58000000 0.48920497 0.00000000)
		(-0.56000000 0.48922294 0.00000000)
		(-0.54000000 0.48924091 0.00000000)
		(-0.52000000 0.48925888 0.00000000)
		(-0.50000000 0.48927685 0.00000000)
		(-0.48000000 0.48929482 0.00000000)
		(-0.46000000 0.48931279 0.00000000)
		(-0.44000000 0.48933076 0.00000000)
		(-0.42000000 0.48934873 0.00000000)
		(-0.40000000 0.48936670 0.00000000)
		(-0.38000000 0.48938467 0.00000000)
		(-0.36000000 0.48940264 0.00000000)
		(-0.34000000 0.48942061 0.00000000)
		(-0.32000000 0.48943858 0.00000000)
		(-0.30000000 0.48945655 0.00000000)
		(-0.28000000 0.48947452 0.00000000)
		(-0.26000000 0.48949249 0.00000000)
		(-0.24000000 0.48951046 0.00000000)
		(-0.22000000 0.48952843 0.00000000)
		(-0.20000000 0.48954640 0.00000000)
		(-0.18000000 0.48956437 0.00000000)
		(-0.16000000 0.48958234 0.00000000)
		(-0.14000000 0.48960031 0.00000000)
		(-0.12000000 0.48961828 0.00000000)
		(-0.10000000 0.48963625 0.00000000)
		(-0.08162011 0.48908651 0.00000000)
		(-0.06324022 0.49052687 0.00000000)
		(-0.04486034 0.49395734 0.00000000)
		(-0.02648045 0.49937791 0.00000000)
		(-0.00810056 0.50678859 0.00000000)
		(0.01027933 0.51618938 0.00000000)
		(0.02865922 0.52758027 0.00000000)
		(0.04703911 0.54096127 0.00000000)
		(0.06541899 0.55633237 0.00000000)
		(0.08379888 0.57369358 0.00000000)
		(0.10055866 0.58964120 0.00000000)
		(0.11731844 0.60509703 0.00000000)
		(0.13407821 0.61997627 0.00000000)
		(0.15083799 0.63419731 0.00000000)
		(0.16759777 0.64768212 0.00000000)
		(0.18435754 0.66035672 0.00000000)
		(0.20111732 0.67215158 0.00000000)
		(0.21787709 0.68300198 0.00000000)
		(0.23463687 0.69284840 0.00000000)
		(0.25139665 0.70163683 0.00000000)
		(0.26815642 0.70931904 0.00000000)
		(0.28491620 0.71585289 0.00000000)
		(0.30167598 0.72120253 0.00000000)
		(0.31843575 0.72533862 0.00000000)
		(0.33519553 0.72823847 0.00000000)
		(0.35195531 0.72988616 0.00000000)
		(0.36871508 0.73027265 0.00000000)
		(0.38547486 0.72939583 0.00000000)
		(0.40223464 0.72726051 0.00000000)
		(0.41899441 0.72387840 0.00000000)
		(0.43575419 0.71926805 0.00000000)
		(0.45251397 0.71345476 0.00000000)
		(0.46927374 0.70647042 0.00000000)
		(0.48603352 0.69835335 0.00000000)
		(0.50279330 0.68914808 0.00000000)
		(0.51955307 0.67890511 0.00000000)
		(0.53631285 0.66768064 0.00000000)
		(0.55307263 0.65553624 0.00000000)
		(0.56983240 0.64253855 0.00000000)
		(0.58659218 0.62875886 0.00000000)
		(0.60335196 0.61427278 0.00000000)
		(0.62011173 0.59915978 0.00000000)
		(0.63687151 0.58350278 0.00000000)
		(0.65363128 0.56738766 0.00000000)
		(0.67039106 0.55090285 0.00000000)
		(0.68715084 0.53413877 0.00000000)
		(0.70391061 0.51718740 0.00000000)
		(0.72067039 0.50014174 0.00000000)
		(0.73743017 0.48309530 0.00000000)
		(0.75418994 0.46614160 0.00000000)
		(0.77094972 0.44937366 0.00000000)
		(0.78770950 0.43288346 0.00000000)
		(0.80446927 0.41676147 0.00000000)
		(0.82122905 0.40109614 0.00000000)
		(0.83798883 0.38597342 0.00000000)
		(0.85474860 0.37147627 0.00000000)
		(0.87150838 0.35768422 0.00000000)
		(0.88826816 0.34467293 0.00000000)
		(0.90502793 0.33251380 0.00000000)
		(0.92178771 0.32127353 0.00000000)
		(0.93854749 0.31101378 0.00000000)
		(0.95530726 0.30179084 0.00000000)
		(0.97206704 0.29365531 0.00000000)
		(0.98882682 0.28665182 0.00000000)
		(1.00558659 0.28081879 0.00000000)
		(1.02234637 0.27618823 0.00000000)
		(1.03910615 0.27278554 0.00000000)
		(1.05586592 0.27062939 0.00000000)
		(1.07262570 0.26973160 0.00000000)
		(1.08938547 0.27009710 0.00000000)
		(1.10614525 0.27172389 0.00000000)
		(1.12290503 0.27460304 0.00000000)
		(1.13966480 0.27871876 0.00000000)
		(1.15642458 0.28404847 0.00000000)
		(1.17318436 0.29056292 0.00000000)
		(1.18994413 0.29822637 0.00000000)
		(1.20670391 0.30699680 0.00000000)
		(1.22346369 0.31682607 0.00000000)
		(1.24022346 0.32766026 0.00000000)
		(1.25698324 0.33943994 0.00000000)
		(1.27374302 0.35210048 0.00000000)
		(1.29050279 0.36557241 0.00000000)
		(1.30726257 0.37978185 0.00000000)
		(1.32402235 0.39465082 0.00000000)
		(1.34078212 0.41009775 0.00000000)
		(1.35754190 0.42603790 0.00000000)
		(1.37430168 0.44238382 0.00000000)
		(1.39106145 0.45904583 0.00000000)
		(1.40782123 0.47593253 0.00000000)
		(1.42458101 0.49295126 0.00000000)
		(1.44134078 0.51000866 0.00000000)
		(1.45810056 0.52701116 0.00000000)
		(1.47486034 0.54386546 0.00000000)
		(1.49162011 0.56047912 0.00000000)
		(1.50837989 0.57676097 0.00000000)
		(1.52513966 0.59262170 0.00000000)
		(1.54189944 0.60797429 0.00000000)
		(1.55865922 0.62273452 0.00000000)
		(1.57541899 0.63682140 0.00000000)
		(1.59217877 0.65015766 0.00000000)
		(1.60893855 0.66267013 0.00000000)
		(1.62569832 0.67429016 0.00000000)
		(1.64245810 0.68495401 0.00000000)
		(1.65921788 0.69460317 0.00000000)
		(1.67597765 0.70318470 0.00000000)
		(1.69273743 0.71065153 0.00000000)
		(1.70949721 0.71696268 0.00000000)
		(1.72625698 0.72208355 0.00000000)
		(1.74301676 0.72598602 0.00000000)
		(1.75977654 0.72864870 0.00000000)
		(1.77653631 0.73005697 0.00000000)
		(1.79329609 0.73020311 0.00000000)
		(1.81005587 0.72908632 0.00000000)
		(1.82681564 0.72671272 0.00000000)
		(1.84357542 0.72309534 0.00000000)
		(1.86033520 0.71825401 0.00000000)
		(1.87709497 0.71221531 0.00000000)
		(1.89385475 0.70501236 0.00000000)
		(1.91061453 0.69668468 0.00000000)
		(1.92737430 0.68727795 0.00000000)
		(1.94413408 0.67684379 0.00000000)
		(1.96089385 0.66543942 0.00000000)
		(1.97765363 0.65312743 0.00000000)
		(1.99441341 0.63997536 0.00000000)
		(2.01117318 0.62605536 0.00000000)
		(2.02793296 0.61144380 0.00000000)
		(2.04469274 0.59622083 0.00000000)
		(2.06145251 0.58046999 0.00000000)
		(2.07821229 0.56427767 0.00000000)
		(2.09497207 0.54773271 0.00000000)
		(2.11173184 0.53092589 0.00000000)
		(2.12849162 0.51394940 0.00000000)
		(2.14525140 0.49689638 0.00000000)
		(2.16201117 0.47986039 0.00000000)
		(2.17877095 0.46293488 0.00000000)
		(2.19553073 0.44621273 0.00000000)
		(2.21229050 0.42978566 0.00000000)
		(2.22905028 0.41374379 0.00000000)
		(2.24581006 0.39817514 0.00000000)
		(2.26256983 0.38316513 0.00000000)
		(2.27932961 0.36879608 0.00000000)
		(2.29608939 0.35514685 0.00000000)
		(2.31284916 0.34229230 0.00000000)
		(2.32960894 0.33030296 0.00000000)
		(2.34636872 0.31924461 0.00000000)
		(2.36312849 0.30917792 0.00000000)
		(2.37988827 0.30015811 0.00000000)
		(2.39664804 0.29223466 0.00000000)
		(2.41340782 0.28545105 0.00000000)
		(2.43016760 0.27984449 0.00000000)
		(2.44692737 0.27544574 0.00000000)
		(2.46368715 0.27227894 0.00000000)
		(2.48044693 0.27036145 0.00000000)
		(2.49720670 0.26970379 0.00000000)
		(2.51396648 0.27030959 0.00000000)