/*--------------------------------*- C++ -*----------------------------------*\\
/*--------------------------------*- C++ -*----------------------------------*\\
| =========                 |                                                 |
| \\\\      /  F ield         | OpenFOAM: The Open Source CFD Toolbox           |
|  \\\\    /   O peration     | Version:  v2012                                 |
|   \\\\  /    A nd           | Website:  www.openfoam.com                      |
|    \\\\/     M anipulation  |                                                 |
\\*---------------------------------------------------------------------------*/
FoamFile
{
    version     2.0;
    format      ascii;
    class       dictionary;
    object      blockMeshDict;
}
// * * * * * * * * * * * * * * * * * * * * * * * * * * * * * * * * * * * * * //

scale   0.01;

xmin -1;
xmax 5;
ymin 0;
ymax 0.5;
zmin 0;
zmax 0.1;

vertices
(
    (-1.00000000 -0.09149640 0.00000000)
    (4.00000000 0.08069400 0.00000000)
    (4.00000000 0.58069400 0.00000000)
    (-1.00000000 0.40850360 0.00000000)
    (-1.00000000 -0.09149640 0.10000000)
    (4.00000000 0.08069400 0.10000000)
    (4.00000000 0.58069400 0.10000000)
    (-1.00000000 0.40850360 0.10000000)
);

blocks
(
    hex (0 1 2 3 4 5 6 7) (200 20 1) simpleGrading (1 1 1)
);

edges
(
	polyLine 0 1
	(
		(-1.00000000 -0.09149640 0.00000000)
		(-0.98000000 -0.09149640 0.00000000)
		(-0.96000000 -0.09149640 0.00000000)
		(-0.94000000 -0.09149640 0.00000000)
		(-0.92000000 -0.09149640 0.00000000)
		(-0.90000000 -0.09149640 0.00000000)
		(-0.88000000 -0.09149640 0.00000000)
		(-0.86000000 -0.09149640 0.00000000)
		(-0.84000000 -0.09149640 0.00000000)
		(-0.82000000 -0.09149640 0.00000000)
		(-0.80000000 -0.09149640 0.00000000)
		(-0.78000000 -0.09149640 0.00000000)
		(-0.76000000 -0.09149640 0.00000000)
		(-0.74000000 -0.09149640 0.00000000)
		(-0.72000000 -0.09149640 0.00000000)
		(-0.70000000 -0.09149640 0.00000000)
		(-0.68000000 -0.09149640 0.00000000)
		(-0.66000000 -0.09149640 0.00000000)
		(-0.64000000 -0.09149640 0.00000000)
		(-0.62000000 -0.09149640 0.00000000)
		(-0.60000000 -0.09149640 0.00000000)
		(-0.58000000 -0.09149640 0.00000000)
		(-0.56000000 -0.09149640 0.00000000)
		(-0.54000000 -0.09149640 0.00000000)
		(-0.52000000 -0.09149640 0.00000000)
		(-0.50000000 -0.09149640 0.00000000)
		(-0.48000000 -0.09149640 0.00000000)
		(-0.46000000 -0.09149640 0.00000000)
		(-0.44000000 -0.09149640 0.00000000)
		(-0.42000000 -0.09149640 0.00000000)
		(-0.40000000 -0.09149640 0.00000000)
		(-0.38000000 -0.09149640 0.00000000)
		(-0.36000000 -0.09149640 0.00000000)
		(-0.34000000 -0.09149640 0.00000000)
		(-0.32000000 -0.09149640 0.00000000)
		(-0.30000000 -0.09149640 0.00000000)
		(-0.28000000 -0.09149640 0.00000000)
		(-0.26000000 -0.09149640 0.00000000)
		(-0.24000000 -0.09149640 0.00000000)
		(-0.22000000 -0.09149640 0.00000000)
		(-0.20000000 -0.09149640 0.00000000)
		(-0.18000000 -0.09149640 0.00000000)
		(-0.16000000 -0.09149640 0.00000000)
		(-0.14000000 -0.09149640 0.00000000)
		(-0.12000000 -0.09149640 0.00000000)
		(-0.10000000 -0.09149640 0.00000000)
		(-0.08162011 -0.09041814 0.00000000)
		(-0.06324022 -0.08718337 0.00000000)
		(-0.04486034 -0.08179208 0.00000000)
		(-0.02648045 -0.07424427 0.00000000)
		(-0.00810056 -0.06453995 0.00000000)
		(0.01027933 -0.05267912 0.00000000)
		(0.02865922 -0.03866177 0.00000000)
		(0.04703911 -0.02248790 0.00000000)
		(0.06541899 -0.00415752 0.00000000)
		(0.08379888 0.01632938 0.00000000)
		(0.10055866 0.03819364 0.00000000)
		(0.11731844 0.05976225 0.00000000)
		(0.13407821 0.08086824 0.00000000)
		(0.15083799 0.10134823 0.00000000)
		(0.16759777 0.12104369 0.00000000)
		(0.18435754 0.13980215 0.00000000)
		(0.20111732 0.15747841 0.00000000)
		(0.21787709 0.17393564 0.00000000)
		(0.23463687 0.18904643 0.00000000)
		(0.25139665 0.20269383 0.00000000)
		(0.26815642 0.21477218 0.00000000)
		(0.28491620 0.22518799 0.00000000)
		(0.30167598 0.23386063 0.00000000)
		(0.31843575 0.24072296 0.00000000)
		(0.33519553 0.24572186 0.00000000)
		(0.35195531 0.24881864 0.00000000)
		(0.36871508 0.24998932 0.00000000)
		(0.38547486 0.24922485 0.00000000)
		(0.40223464 0.24653113 0.00000000)
		(0.41899441 0.24192903 0.00000000)
		(0.43575419 0.23545416 0.00000000)
		(0.45251397 0.22715666 0.00000000)
		(0.46927374 0.21710074 0.00000000)
		(0.48603352 0.20536425 0.00000000)
		(0.50279330 0.19203805 0.00000000)
		(0.51955307 0.17722528 0.00000000)
		(0.53631285 0.16104063 0.00000000)
		(0.55307263 0.14360936 0.00000000)
		(0.56983240 0.12506642 0.00000000)
		(0.58659218 0.10555534 0.00000000)
		(0.60335196 0.08522717 0.00000000)
		(0.62011173 0.06423925 0.00000000)
		(0.63687151 0.04275406 0.00000000)
		(0.65363128 0.02093791 0.00000000)
		(0.67039106 -0.00104031 0.00000000)
		(0.68715084 -0.02301049 0.00000000)
		(0.70391061 -0.04480254 0.00000000)
		(0.72067039 -0.06624777 0.00000000)
		(0.73743017 -0.08718019 0.00000000)
		(0.75418994 -0.10743774 0.00000000)
		(0.77094972 -0.12686363 0.00000000)
		(0.78770950 -0.14530746 0.00000000)
		(0.80446927 -0.16262648 0.00000000)
		(0.82122905 -0.17868661 0.00000000)
		(0.83798883 -0.19336354 0.00000000)
		(0.85474860 -0.20654365 0.00000000)
		(0.87150838 -0.21812491 0.00000000)
		(0.88826816 -0.22801767 0.00000000)
		(0.90502793 -0.23614536 0.00000000)
		(0.92178771 -0.24244505 0.00000000)
		(0.93854749 -0.24686799 0.00000000)
		(0.95530726 -0.24937993 0.00000000)
		(0.97206704 -0.24996143 0.00000000)
		(0.98882682 -0.24860799 0.00000000)
		(1.00558659 -0.24533009 0.00000000)
		(1.02234637 -0.24015309 0.00000000)
		(1.03910615 -0.23311708 0.00000000)
		(1.05586592 -0.22427651 0.00000000)
		(1.07262570 -0.21369983 0.00000000)
		(1.08938547 -0.20146891 0.00000000)
		(1.10614525 -0.18767843 0.00000000)
		(1.12290503 -0.17243513 0.00000000)
		(1.13966480 -0.15585702 0.00000000)
		(1.15642458 -0.13807243 0.00000000)
		(1.17318436 -0.11921902 0.00000000)
		(1.18994413 -0.09944275 0.00000000)
		(1.20670391 -0.07889669 0.00000000)
		(1.22346369 -0.05773989 0.00000000)
		(1.24022346 -0.03613613 0.00000000)
		(1.25698324 -0.01425265 0.00000000)
		(1.27374302 0.00774117 0.00000000)
		(1.29050279 0.02967506 0.00000000)
		(1.30726257 0.05137924 0.00000000)
		(1.32402235 0.07268569 0.00000000)
		(1.34078212 0.09342948 0.00000000)
		(1.35754190 0.11345005 0.00000000)
		(1.37430168 0.13259239 0.00000000)
		(1.39106145 0.15070835 0.00000000)
		(1.40782123 0.16765768 0.00000000)
		(1.42458101 0.18330918 0.00000000)
		(1.44134078 0.19754169 0.00000000)
		(1.45810056 0.21024503 0.00000000)
		(1.47486034 0.22132088 0.00000000)
		(1.49162011 0.23068349 0.00000000)
		(1.50837989 0.23826038 0.00000000)
		(1.52513966 0.24399292 0.00000000)
		(1.54189944 0.24783671 0.00000000)
		(1.55865922 0.24976201 0.00000000)
		(1.57541899 0.24975391 0.00000000)
		(1.59217877 0.24781248 0.00000000)
		(1.60893855 0.24395273 0.00000000)
		(1.62569832 0.23820456 0.00000000)
		(1.64245810 0.23061246 0.00000000)
		(1.65921788 0.22123520 0.00000000)
		(1.67597765 0.21014536 0.00000000)
		(1.69273743 0.19742879 0.00000000)
		(1.70949721 0.18318394 0.00000000)
		(1.72625698 0.16752106 0.00000000)
		(1.74301676 0.15056141 0.00000000)
		(1.75977654 0.13243627 0.00000000)
		(1.77653631 0.11328595 0.00000000)
		(1.79329609 0.09325869 0.00000000)
		(1.81005587 0.07250951 0.00000000)
		(1.82681564 0.05119904 0.00000000)
		(1.84357542 0.02949224 0.00000000)
		(1.86033520 0.00755714 0.00000000)
		(1.87709497 -0.01443646 0.00000000)
		(1.89385475 -0.03631830 0.00000000)
		(1.91061453 -0.05791901 0.00000000)
		(1.92737430 -0.07907137 0.00000000)
		(1.94413408 -0.09961164 0.00000000)
		(1.96089385 -0.11938082 0.00000000)
		(1.97765363 -0.13822588 0.00000000)
		(1.99441341 -0.15600093 0.00000000)
		(2.01117318 -0.17256839 0.00000000)
		(2.02793296 -0.18780001 0.00000000)
		(2.04469274 -0.20157787 0.00000000)
		(2.06145251 -0.21379532 0.00000000)
		(2.07821229 -0.22435780 0.00000000)
		(2.09497207 -0.23318352 0.00000000)
		(2.11173184 -0.24020419 0.00000000)
		(2.12849162 -0.24536544 0.00000000)
		(2.14525140 -0.24862733 0.00000000)
		(2.16201117 -0.24996460 0.00000000)
		(2.17877095 -0.24936691 0.00000000)
		(2.19553073 -0.24683887 0.00000000)
		(2.21229050 -0.24240007 0.00000000)
		(2.22905028 -0.23608485 0.00000000)
		(2.24581006 -0.22794212 0.00000000)
		(2.26256983 -0.21803489 0.00000000)
		(2.27932961 -0.20643986 0.00000000)
		(2.29608939 -0.19324679 0.00000000)
		(2.31284916 -0.17855780 0.00000000)
		(2.32960894 -0.16248660 0.00000000)
		(2.34636872 -0.14515760 0.00000000)
		(2.36312849 -0.12670495 0.00000000)
		(2.37988827 -0.10727147 0.00000000)
		(2.39664804 -0.08700761 0.00000000)
		(2.41340782 -0.06607022 0.00000000)
		(2.43016760 -0.04462139 0.00000000)
		(2.44692737 -0.02282715 0.00000000)
		(2.46368715 -0.00085620 0.00000000)
		(2.48044693 0.02112137 0.00000000)
		(2.49720670 0.04293545 0.00000000)
		(2.51396648 0.06441716 0.00000000)
		(2.53072626 0.08540023 0.00000000)
		(2.54748603 0.10572221 0.00000000)
		(2.56424581 0.12522580 0.00000000)
		(2.58100559 0.14376002 0.00000000)
		(2.59776536 0.16118141 0.00000000)
		(2.61452514 0.17735509 0.00000000)
		(2.63128492 0.19215588 0.00000000)
		(2.64804469 0.20546919 0.00000000)
		(2.66480447 0.21719197 0.00000000)
		(2.68156425 0.22723348 0.00000000)
		(2.69832402 0.23551599 0.00000000)
		(2.71508380 0.24197537 0.00000000)
		(2.73184358 0.24656163 0.00000000)
		(2.74860335 0.24923927 0.00000000)
		(2.76536313 0.24998755 0.00000000)
		(2.78212291 0.24880069 0.00000000)
		(2.79888268 0.24568788 0.00000000)
		(2.81564246 0.24067320 0.00000000)
		(2.83240223 0.23379548 0.00000000)
		(2.84916201 0.22510796 0.00000000)
		(2.86592179 0.21467789 0.00000000)
		(2.88268156 0.20258600 0.00000000)
		(2.89944134 0.18892591 0.00000000)
		(2.91620112 0.17380334 0.00000000)
		(2.93296089 0.15733537 0.00000000)
		(2.95166480 0.14277351 0.00000000)
		(2.97036872 0.12974448 0.00000000)
		(2.98907263 0.11824827 0.00000000)
		(3.00777654 0.10828490 0.00000000)
		(3.02648045 0.09985434 0.00000000)
		(3.04518436 0.09295662 0.00000000)
		(3.06388827 0.08759172 0.00000000)
		(3.08259218 0.08375966 0.00000000)
		(3.10129609 0.08146041 0.00000000)
		(3.12000000 0.08069400 0.00000000)
		(3.14000000 0.08069400 0.00000000)
		(3.16000000 0.08069400 0.00000000)
		(3.18000000 0.08069400 0.00000000)
		(3.20000000 0.08069400 0.00000000)
		(3.22000000 0.08069400 0.00000000)
		(3.24000000 0.08069400 0.00000000)
		(3.26000000 0.08069400 0.00000000)
		(3.28000000 0.08069400 0.00000000)
		(3.30000000 0.08069400 0.00000000)
		(3.32000000 0.08069400 0.00000000)
		(3.34000000 0.08069400 0.00000000)
		(3.36000000 0.08069400 0.00000000)
		(3.38000000 0.08069400 0.00000000)
		(3.40000000 0.08069400 0.00000000)
		(3.42000000 0.08069400 0.00000000)
		(3.44000000 0.08069400 0.00000000)
		(3.46000000 0.08069400 0.00000000)
		(3.48000000 0.08069400 0.00000000)
		(3.50000000 0.08069400 0.00000000)
		(3.52000000 0.08069400 0.00000000)
		(3.54000000 0.08069400 0.00000000)
		(3.56000000 0.08069400 0.00000000)
		(3.58000000 0.08069400 0.00000000)
		(3.60000000 0.08069400 0.00000000)
		(3.62000000 0.08069400 0.00000000)
		(3.64000000 0.08069400 0.00000000)
		(3.66000000 0.08069400 0.00000000)
		(3.68000000 0.08069400 0.00000000)
		(3.70000000 0.08069400 0.00000000)
		(3.72000000 0.08069400 0.00000000)
		(3.74000000 0.08069400 0.00000000)
		(3.76000000 0.08069400 0.00000000)
		(3.78000000 0.08069400 0.00000000)
		(3.80000000 0.08069400 0.00000000)
		(3.82000000 0.08069400 0.00000000)
		(3.84000000 0.08069400 0.00000000)
		(3.86000000 0.08069400 0.00000000)
		(3.88000000 0.08069400 0.00000000)
		(3.90000000 0.08069400 0.00000000)
		(3.92000000 0.08069400 0.00000000)
		(3.94000000 0.08069400 0.00000000)
		(3.96000000 0.08069400 0.00000000)
		(3.98000000 0.08069400 0.00000000)
		(4.00000000 0.08069400 0.00000000)
	)
	polyLine 4 5
	(
		(-1.00000000 -0.09149640 0.10000000)
		(-0.98000000 -0.09149640 0.10000000)
		(-0.96000000 -0.09149640 0.10000000)
		(-0.94000000 -0.09149640 0.10000000)
		(-0.92000000 -0.09149640 0.10000000)
		(-0.90000000 -0.09149640 0.10000000)
		(-0.88000000 -0.09149640 0.10000000)
		(-0.86000000 -0.09149640 0.10000000)
		(-0.84000000 -0.09149640 0.10000000)
		(-0.82000000 -0.09149640 0.10000000)
		(-0.80000000 -0.09149640 0.10000000)
		(-0.78000000 -0.09149640 0.10000000)
		(-0.76000000 -0.09149640 0.10000000)
		(-0.74000000 -0.09149640 0.10000000)
		(-0.72000000 -0.09149640 0.10000000)
		(-0.70000000 -0.09149640 0.10000000)
		(-0.68000000 -0.09149640 0.10000000)
		(-0.66000000 -0.09149640 0.10000000)
		(-0.64000000 -0.09149640 0.10000000)
		(-0.62000000 -0.09149640 0.10000000)
		(-0.60000000 -0.09149640 0.10000000)
		(-0.58000000 -0.09149640 0.10000000)
		(-0.56000000 -0.09149640 0.10000000)
		(-0.54000000 -0.09149640 0.10000000)
		(-0.52000000 -0.09149640 0.10000000)
		(-0.50000000 -0.09149640 0.10000000)
		(-0.48000000 -0.09149640 0.10000000)
		(-0.46000000 -0.09149640 0.10000000)
		(-0.44000000 -0.09149640 0.10000000)
		(-0.42000000 -0.09149640 0.10000000)
		(-0.40000000 -0.09149640 0.10000000)
		(-0.38000000 -0.09149640 0.10000000)
		(-0.36000000 -0.09149640 0.10000000)
		(-0.34000000 -0.09149640 0.10000000)
		(-0.32000000 -0.09149640 0.10000000)
		(-0.30000000 -0.09149640 0.10000000)
		(-0.28000000 -0.09149640 0.10000000)
		(-0.26000000 -0.09149640 0.10000000)
		(-0.24000000 -0.09149640 0.10000000)
		(-0.22000000 -0.09149640 0.10000000)
		(-0.20000000 -0.09149640 0.10000000)
		(-0.18000000 -0.09149640 0.10000000)
		(-0.16000000 -0.09149640 0.10000000)
		(-0.14000000 -0.09149640 0.10000000)
		(-0.12000000 -0.09149640 0.10000000)
		(-0.10000000 -0.09149640 0.10000000)
		(-0.08162011 -0.09041814 0.10000000)
		(-0.06324022 -0.08718337 0.10000000)
		(-0.04486034 -0.08179208 0.10000000)
		(-0.02648045 -0.07424427 0.10000000)
		(-0.00810056 -0.06453995 0.10000000)
		(0.01027933 -0.05267912 0.10000000)
		(0.02865922 -0.03866177 0.10000000)
		(0.04703911 -0.02248790 0.10000000)
		(0.06541899 -0.00415752 0.10000000)
		(0.08379888 0.01632938 0.10000000)
		(0.10055866 0.03819364 0.10000000)
		(0.11731844 0.05976225 0.10000000)
		(0.13407821 0.08086824 0.10000000)
		(0.15083799 0.10134823 0.10000000)
		(0.16759777 0.12104369 0.10000000)
		(0.18435754 0.13980215 0.10000000)
		(0.20111732 0.15747841 0.10000000)
		(0.21787709 0.17393564 0.10000000)
		(0.23463687 0.18904643 0.10000000)
		(0.25139665 0.20269383 0.10000000)
		(0.26815642 0.21477218 0.10000000)
		(0.28491620 0.22518799 0.10000000)
		(0.30167598 0.23386063 0.10000000)
		(0.31843575 0.24072296 0.10000000)
		(0.33519553 0.24572186 0.10000000)
		(0.35195531 0.24881864 0.10000000)
		(0.36871508 0.24998932 0.10000000)
		(0.38547486 0.24922485 0.10000000)
		(0.40223464 0.24653113 0.10000000)
		(0.41899441 0.24192903 0.10000000)
		(0.43575419 0.23545416 0.10000000)
		(0.45251397 0.22715666 0.10000000)
		(0.46927374 0.21710074 0.10000000)
		(0.48603352 0.20536425 0.10000000)
		(0.50279330 0.19203805 0.10000000)
		(0.51955307 0.17722528 0.10000000)
		(0.53631285 0.16104063 0.10000000)
		(0.55307263 0.14360936 0.10000000)
		(0.56983240 0.12506642 0.10000000)
		(0.58659218 0.10555534 0.10000000)
		(0.60335196 0.08522717 0.10000000)
		(0.62011173 0.06423925 0.10000000)
		(0.63687151 0.04275406 0.10000000)
		(0.65363128 0.02093791 0.10000000)
		(0.67039106 -0.00104031 0.10000000)
		(0.68715084 -0.02301049 0.10000000)
		(0.70391061 -0.04480254 0.10000000)
		(0.72067039 -0.06624777 0.10000000)
		(0.73743017 -0.08718019 0.10000000)
		(0.75418994 -0.10743774 0.10000000)
		(0.77094972 -0.12686363 0.10000000)
		(0.78770950 -0.14530746 0.10000000)
		(0.80446927 -0.16262648 0.10000000)
		(0.82122905 -0.17868661 0.10000000)
		(0.83798883 -0.19336354 0.10000000)
		(0.85474860 -0.20654365 0.10000000)
		(0.87150838 -0.21812491 0.10000000)
		(0.88826816 -0.22801767 0.10000000)
		(0.90502793 -0.23614536 0.10000000)
		(0.92178771 -0.24244505 0.10000000)
		(0.93854749 -0.24686799 0.10000000)
		(0.95530726 -0.24937993 0.10000000)
		(0.97206704 -0.24996143 0.10000000)
		(0.98882682 -0.24860799 0.10000000)
		(1.00558659 -0.24533009 0.10000000)
		(1.02234637 -0.24015309 0.10000000)
		(1.03910615 -0.23311708 0.10000000)
		(1.05586592 -0.22427651 0.10000000)
		(1.07262570 -0.21369983 0.10000000)
		(1.08938547 -0.20146891 0.10000000)
		(1.10614525 -0.18767843 0.10000000)
		(1.12290503 -0.17243513 0.10000000)
		(1.13966480 -0.15585702 0.10000000)
		(1.15642458 -0.13807243 0.10000000)
		(1.17318436 -0.11921902 0.10000000)
		(1.18994413 -0.09944275 0.10000000)
		(1.20670391 -0.07889669 0.10000000)
		(1.22346369 -0.05773989 0.10000000)
		(1.24022346 -0.03613613 0.10000000)
		(1.25698324 -0.01425265 0.10000000)
		(1.27374302 0.00774117 0.10000000)
		(1.29050279 0.02967506 0.10000000)
		(1.30726257 0.05137924 0.10000000)
		(1.32402235 0.07268569 0.10000000)
		(1.34078212 0.09342948 0.10000000)
		(1.35754190 0.11345005 0.10000000)
		(1.37430168 0.13259239 0.10000000)
		(1.39106145 0.15070835 0.10000000)
		(1.40782123 0.16765768 0.10000000)
		(1.42458101 0.18330918 0.10000000)
		(1.44134078 0.19754169 0.10000000)
		(1.45810056 0.21024503 0.10000000)
		(1.47486034 0.22132088 0.10000000)
		(1.49162011 0.23068349 0.10000000)
		(1.50837989 0.23826038 0.10000000)
		(1.52513966 0.24399292 0.10000000)
		(1.54189944 0.24783671 0.10000000)
		(1.55865922 0.24976201 0.10000000)
		(1.57541899 0.24975391 0.10000000)
		(1.59217877 0.24781248 0.10000000)
		(1.60893855 0.24395273 0.10000000)
		(1.62569832 0.23820456 0.10000000)
		(1.64245810 0.23061246 0.10000000)
		(1.65921788 0.22123520 0.10000000)
		(1.67597765 0.21014536 0.10000000)
		(1.69273743 0.19742879 0.10000000)
		(1.70949721 0.18318394 0.10000000)
		(1.72625698 0.16752106 0.10000000)
		(1.74301676 0.15056141 0.10000000)
		(1.75977654 0.13243627 0.10000000)
		(1.77653631 0.11328595 0.10000000)
		(1.79329609 0.09325869 0.10000000)
		(1.81005587 0.07250951 0.10000000)
		(1.82681564 0.05119904 0.10000000)
		(1.84357542 0.02949224 0.10000000)
		(1.86033520 0.00755714 0.10000000)
		(1.87709497 -0.01443646 0.10000000)
		(1.89385475 -0.03631830 0.10000000)
		(1.91061453 -0.05791901 0.10000000)
		(1.92737430 -0.07907137 0.10000000)
		(1.94413408 -0.09961164 0.10000000)
		(1.96089385 -0.11938082 0.10000000)
		(1.97765363 -0.13822588 0.10000000)
		(1.99441341 -0.15600093 0.10000000)
		(2.01117318 -0.17256839 0.10000000)
		(2.02793296 -0.18780001 0.10000000)
		(2.04469274 -0.20157787 0.10000000)
		(2.06145251 -0.21379532 0.10000000)
		(2.07821229 -0.22435780 0.10000000)
		(2.09497207 -0.23318352 0.10000000)
		(2.11173184 -0.24020419 0.10000000)
		(2.12849162 -0.24536544 0.10000000)
		(2.14525140 -0.24862733 0.10000000)
		(2.16201117 -0.24996460 0.10000000)
		(2.17877095 -0.24936691 0.10000000)
		(2.19553073 -0.24683887 0.10000000)
		(2.21229050 -0.24240007 0.10000000)
		(2.22905028 -0.23608485 0.10000000)
		(2.24581006 -0.22794212 0.10000000)
		(2.26256983 -0.21803489 0.10000000)
		(2.27932961 -0.20643986 0.10000000)
		(2.29608939 -0.19324679 0.10000000)
		(2.31284916 -0.17855780 0.10000000)
		(2.32960894 -0.16248660 0.10000000)
		(2.34636872 -0.14515760 0.10000000)
		(2.36312849 -0.12670495 0.10000000)
		(2.37988827 -0.10727147 0.10000000)
		(2.39664804 -0.08700761 0.10000000)
		(2.41340782 -0.06607022 0.10000000)
		(2.43016760 -0.04462139 0.10000000)
		(2.44692737 -0.02282715 0.10000000)
		(2.46368715 -0.00085620 0.10000000)
		(2.48044693 0.02112137 0.10000000)
		(2.49720670 0.04293545 0.10000000)
		(2.51396648 0.06441716 0.10000000)
		(2.53072626 0.08540023 0.10000000)
		(2.54748603 0.10572221 0.10000000)
		(2.56424581 0.12522580 0.10000000)
		(2.58100559 0.14376002 0.10000000)
		(2.59776536 0.16118141 0.10000000)
		(2.61452514 0.17735509 0.10000000)
		(2.63128492 0.19215588 0.10000000)
		(2.64804469 0.20546919 0.10000000)
		(2.66480447 0.21719197 0.10000000)
		(2.68156425 0.22723348 0.10000000)
		(2.69832402 0.23551599 0.10000000)
		(2.71508380 0.24197537 0.10000000)
		(2.73184358 0.24656163 0.10000000)
		(2.74860335 0.24923927 0.10000000)
		(2.76536313 0.24998755 0.10000000)
		(2.78212291 0.24880069 0.10000000)
		(2.79888268 0.24568788 0.10000000)
		(2.81564246 0.24067320 0.10000000)
		(2.83240223 0.23379548 0.10000000)
		(2.84916201 0.22510796 0.10000000)
		(2.86592179 0.21467789 0.10000000)
		(2.88268156 0.20258600 0.10000000)
		(2.89944134 0.18892591 0.10000000)
		(2.91620112 0.17380334 0.10000000)
		(2.93296089 0.15733537 0.10000000)
		(2.95166480 0.14277351 0.10000000)
		(2.97036872 0.12974448 0.10000000)
		(2.98907263 0.11824827 0.10000000)
		(3.00777654 0.10828490 0.10000000)
		(3.02648045 0.09985434 0.10000000)
		(3.04518436 0.09295662 0.10000000)
		(3.06388827 0.08759172 0.10000000)
		(3.08259218 0.08375966 0.10000000)
		(3.10129609 0.08146041 0.10000000)
		(3.12000000 0.08069400 0.10000000)
		(3.14000000 0.08069400 0.10000000)
		(3.16000000 0.08069400 0.10000000)
		(3.18000000 0.08069400 0.10000000)
		(3.20000000 0.08069400 0.10000000)
		(3.22000000 0.08069400 0.10000000)
		(3.24000000 0.08069400 0.10000000)
		(3.26000000 0.08069400 0.10000000)
		(3.28000000 0.08069400 0.10000000)
		(3.30000000 0.08069400 0.10000000)
		(3.32000000 0.08069400 0.10000000)
		(3.34000000 0.08069400 0.10000000)
		(3.36000000 0.08069400 0.10000000)
		(3.38000000 0.08069400 0.10000000)
		(3.40000000 0.08069400 0.10000000)
		(3.42000000 0.08069400 0.10000000)
		(3.44000000 0.08069400 0.10000000)
		(3.46000000 0.08069400 0.10000000)
		(3.48000000 0.08069400 0.10000000)
		(3.50000000 0.08069400 0.10000000)
		(3.52000000 0.08069400 0.10000000)
		(3.54000000 0.08069400 0.10000000)
		(3.56000000 0.08069400 0.10000000)
		(3.58000000 0.08069400 0.10000000)
		(3.60000000 0.08069400 0.10000000)
		(3.62000000 0.08069400 0.10000000)
		(3.64000000 0.08069400 0.10000000)
		(3.66000000 0.08069400 0.10000000)
		(3.68000000 0.08069400 0.10000000)
		(3.70000000 0.08069400 0.10000000)
		(3.72000000 0.08069400 0.10000000)
		(3.74000000 0.08069400 0.10000000)
		(3.76000000 0.08069400 0.10000000)
		(3.78000000 0.08069400 0.10000000)
		(3.80000000 0.08069400 0.10000000)
		(3.82000000 0.08069400 0.10000000)
		(3.84000000 0.08069400 0.10000000)
		(3.86000000 0.08069400 0.10000000)
		(3.88000000 0.08069400 0.10000000)
		(3.90000000 0.08069400 0.10000000)
		(3.92000000 0.08069400 0.10000000)
		(3.94000000 0.08069400 0.10000000)
		(3.96000000 0.08069400 0.10000000)
		(3.98000000 0.08069400 0.10000000)
		(4.00000000 0.08069400 0.10000000)
	)
	polyLine 3 2
	(
		(-1.00000000 0.40850360 0.00000000)
		(-0.98000000 0.40779143 0.00000000)
		(-0.96000000 0.40707927 0.00000000)
		(-0.94000000 0.40636710 0.00000000)
		(-0.92000000 0.40565493 0.00000000)
		(-0.90000000 0.40494277 0.00000000)
		(-0.88000000 0.40423060 0.00000000)
		(-0.86000000 0.40351843 0.00000000)
		(-0.84000000 0.40280626 0.00000000)
		(-0.82000000 0.40209410 0.00000000)
		(-0.80000000 0.40138193 0.00000000)
		(-0.78000000 0.40066976 0.00000000)
		(-0.76000000 0.39995760 0.00000000)
		(-0.74000000 0.39924543 0.00000000)
		(-0.72000000 0.39853326 0.00000000)
		(-0.70000000 0.39782109 0.00000000)
		(-0.68000000 0.39710893 0.00000000)
		(-0.66000000 0.39639676 0.00000000)
		(-0.64000000 0.39568459 0.00000000)
		(-0.62000000 0.39497243 0.00000000)
		(-0.60000000 0.39426026 0.00000000)
		(-0.58000000 0.39354809 0.00000000)
		(-0.56000000 0.39283592 0.00000000)
		(-0.54000000 0.39212376 0.00000000)
		(-0.52000000 0.39141159 0.00000000)
		(-0.50000000 0.39069942 0.00000000)
		(-0.48000000 0.38998725 0.00000000)
		(-0.46000000 0.38927509 0.00000000)
		(-0.44000000 0.38856292 0.00000000)
		(-0.42000000 0.38785075 0.00000000)
		(-0.40000000 0.38713859 0.00000000)
		(-0.38000000 0.38642642 0.00000000)
		(-0.36000000 0.38571425 0.00000000)
		(-0.34000000 0.38500208 0.00000000)
		(-0.32000000 0.38428992 0.00000000)
		(-0.30000000 0.38357775 0.00000000)
		(-0.28000000 0.38286558 0.00000000)
		(-0.26000000 0.38215342 0.00000000)
		(-0.24000000 0.38144125 0.00000000)
		(-0.22000000 0.38072908 0.00000000)
		(-0.20000000 0.38001691 0.00000000)
		(-0.18000000 0.37930475 0.00000000)
		(-0.16000000 0.37859258 0.00000000)
		(-0.14000000 0.37788041 0.00000000)
		(-0.12000000 0.37716825 0.00000000)
		(-0.10000000 0.37645608 0.00000000)
		(-0.08162011 0.37496112 0.00000000)
		(-0.06324022 0.37704507 0.00000000)
		(-0.04486034 0.38270792 0.00000000)
		(-0.02648045 0.39194968 0.00000000)
		(-0.00810056 0.40477035 0.00000000)
		(0.01027933 0.42116993 0.00000000)
		(0.02865922 0.44114841 0.00000000)
		(0.04703911 0.46470580 0.00000000)
		(0.06541899 0.49184210 0.00000000)
		(0.08379888 0.52255731 0.00000000)
		(0.10055866 0.55276047 0.00000000)
		(0.11731844 0.58255522 0.00000000)
		(0.13407821 0.61171091 0.00000000)
		(0.15083799 0.64000185 0.00000000)
		(0.16759777 0.66720904 0.00000000)
		(0.18435754 0.69312188 0.00000000)
		(0.20111732 0.71753976 0.00000000)
		(0.21787709 0.74027368 0.00000000)
		(0.23463687 0.76114764 0.00000000)
		(0.25139665 0.78000008 0.00000000)
		(0.26815642 0.79668504 0.00000000)
		(0.28491620 0.81107338 0.00000000)
		(0.30167598 0.82305371 0.00000000)
		(0.31843575 0.83253329 0.00000000)
		(0.33519553 0.83943874 0.00000000)
		(0.35195531 0.84371662 0.00000000)
		(0.36871508 0.84533379 0.00000000)
		(0.38547486 0.84427775 0.00000000)
		(0.40223464 0.84055667 0.00000000)
		(0.41899441 0.83419935 0.00000000)
		(0.43575419 0.82525501 0.00000000)
		(0.45251397 0.81379288 0.00000000)
		(0.46927374 0.79990169 0.00000000)
		(0.48603352 0.78368898 0.00000000)
		(0.50279330 0.76528024 0.00000000)
		(0.51955307 0.74481797 0.00000000)
		(0.53631285 0.72246058 0.00000000)
		(0.55307263 0.69838113 0.00000000)
		(0.56983240 0.67276602 0.00000000)
		(0.58659218 0.64581353 0.00000000)
		(0.60335196 0.61773231 0.00000000)
		(0.62011173 0.58873973 0.00000000)
		(0.63687151 0.55906021 0.00000000)
		(0.65363128 0.52892351 0.00000000)
		(0.67039106 0.49856292 0.00000000)
		(0.68715084 0.46821345 0.00000000)
		(0.70391061 0.43811004 0.00000000)
		(0.72067039 0.40848571 0.00000000)
		(0.73743017 0.37956980 0.00000000)
		(0.75418994 0.35158613 0.00000000)
		(0.77094972 0.32475133 0.00000000)
		(0.78770950 0.29927312 0.00000000)
		(0.80446927 0.27534873 0.00000000)
		(0.82122905 0.25316335 0.00000000)
		(0.83798883 0.23288873 0.00000000)
		(0.85474860 0.21468181 0.00000000)
		(0.87150838 0.19868352 0.00000000)
		(0.88826816 0.18501772 0.00000000)
		(0.90502793 0.17379018 0.00000000)
		(0.92178771 0.16508782 0.00000000)
		(0.93854749 0.15897800 0.00000000)
		(0.95530726 0.15550802 0.00000000)
		(0.97206704 0.15470473 0.00000000)
		(0.98882682 0.15657437 0.00000000)
		(1.00558659 0.16110245 0.00000000)
		(1.02234637 0.16825392 0.00000000)
		(1.03910615 0.17797343 0.00000000)
		(1.05586592 0.19018573 0.00000000)
		(1.07262570 0.20479629 0.00000000)
		(1.08938547 0.22169202 0.00000000)
		(1.10614525 0.24074211 0.00000000)
		(1.12290503 0.26179911 0.00000000)
		(1.13966480 0.28470002 0.00000000)
		(1.15642458 0.30926755 0.00000000)
		(1.17318436 0.33531154 0.00000000)
		(1.18994413 0.36263037 0.00000000)
		(1.20670391 0.39101258 0.00000000)
		(1.22346369 0.42023845 0.00000000)
		(1.24022346 0.45008175 0.00000000)
		(1.25698324 0.48031147 0.00000000)
		(1.27374302 0.51069360 0.00000000)
		(1.29050279 0.54099295 0.00000000)
		(1.30726257 0.57097498 0.00000000)
		(1.32402235 0.60040759 0.00000000)
		(1.34078212 0.62906294 0.00000000)
		(1.35754190 0.65671923 0.00000000)
		(1.37430168 0.68316236 0.00000000)
		(1.39106145 0.70818764 0.00000000)
		(1.40782123 0.73160134 0.00000000)
		(1.42458101 0.75322223 0.00000000)
		(1.44134078 0.77288293 0.00000000)
		(1.45810056 0.79043126 0.00000000)
		(1.47486034 0.80573137 0.00000000)
		(1.49162011 0.81866482 0.00000000)
		(1.50837989 0.82913151 0.00000000)
		(1.52513966 0.83705040 0.00000000)
		(1.54189944 0.84236019 0.00000000)
		(1.55865922 0.84501979 0.00000000)
		(1.57541899 0.84500860 0.00000000)
		(1.59217877 0.84232671 0.00000000)
		(1.60893855 0.83699489 0.00000000)
		(1.62569832 0.82905440 0.00000000)
		(1.64245810 0.81856671 0.00000000)
		(1.65921788 0.80561301 0.00000000)
		(1.67597765 0.79029357 0.00000000)
		(1.69273743 0.77272698 0.00000000)
		(1.70949721 0.75304922 0.00000000)
		(1.72625698 0.73141262 0.00000000)
		(1.74301676 0.70798466 0.00000000)
		(1.75977654 0.68294670 0.00000000)
		(1.77653631 0.65649255 0.00000000)
		(1.79329609 0.62882701 0.00000000)
		(1.81005587 0.60016421 0.00000000)
		(1.82681564 0.57072605 0.00000000)
		(1.84357542 0.54074041 0.00000000)
		(1.86033520 0.51043939 0.00000000)
		(1.87709497 0.48005756 0.00000000)
		(1.89385475 0.44983011 0.00000000)
		(1.91061453 0.41999102 0.00000000)
		(1.92737430 0.39077127 0.00000000)
		(1.94413408 0.36239706 0.00000000)
		(1.96089385 0.33508803 0.00000000)
		(1.97765363 0.30905558 0.00000000)
		(1.99441341 0.28450122 0.00000000)
		(2.01117318 0.26161503 0.00000000)
		(2.02793296 0.24057416 0.00000000)
		(2.04469274 0.22154151 0.00000000)
		(2.06145251 0.20466439 0.00000000)
		(2.07821229 0.19007345 0.00000000)
		(2.09497207 0.17788164 0.00000000)
		(2.11173184 0.16818334 0.00000000)
		(2.12849162 0.16105361 0.00000000)
		(2.14525140 0.15654766 0.00000000)
		(2.16201117 0.15470036 0.00000000)
		(2.17877095 0.15552601 0.00000000)
		(2.19553073 0.15901822 0.00000000)
		(2.21229050 0.16514996 0.00000000)
		(2.22905028 0.17387376 0.00000000)
		(2.24581006 0.18512209 0.00000000)
		(2.26256983 0.19880788 0.00000000)
		(2.27932961 0.21482518 0.00000000)
		(2.29608939 0.23305001 0.00000000)
		(2.31284916 0.25334130 0.00000000)
		(2.32960894 0.27554195 0.00000000)
		(2.34636872 0.29948013 0.00000000)
		(2.36312849 0.32497053 0.00000000)
		(2.37988827 0.35181582 0.00000000)
		(2.39664804 0.37980820 0.00000000)
		(2.41340782 0.40873098 0.00000000)
		(2.43016760 0.43836027 0.00000000)
		(2.44692737 0.46846671 0.00000000)
		(2.46368715 0.49881725 0.00000000)
		(2.48044693 0.52917694 0.00000000)
		(2.49720670 0.55931078 0.00000000)
		(2.51396648 0.58898549 0.00000000)
		(2.53072626 0.61797138 0.00000000)