/*--------------------------------*- C++ -*----------------------------------*\\
/*--------------------------------*- C++ -*----------------------------------*\\
| =========                 |                                                 |
| \\\\      /  F ield         | OpenFOAM: The Open Source CFD Toolbox           |
|  \\\\    /   O peration     | Version:  v2012                                 |
|   \\\\  /    A nd           | Website:  www.openfoam.com                      |
|    \\\\/     M anipulation  |                                                 |
\\*---------------------------------------------------------------------------*/
FoamFile
{
    version     2.0;
    format      ascii;
    class       dictionary;
    object      blockMeshDict;
}
// * * * * * * * * * * * * * * * * * * * * * * * * * * * * * * * * * * * * * //

scale   0.01;

xmin -1;
xmax 5;
ymin 0;
ymax 0.5;
zmin 0;
zmax 0.1;

vertices
(
    (-1.00000000 0.21889773 0.00000000)
    (4.00000000 -0.24875341 0.00000000)
    (4.00000000 0.25124659 0.00000000)
    (-1.00000000 0.71889773 0.00000000)
    (-1.00000000 0.21889773 0.10000000)
    (4.00000000 -0.24875341 0.10000000)
    (4.00000000 0.25124659 0.10000000)
    (-1.00000000 0.71889773 0.10000000)
);

blocks
(
    hex (0 1 2 3 4 5 6 7) (200 20 1) simpleGrading (1 1 1)
);

edges
(
	polyLine 0 1
	(
		(-1.00000000 0.21889773 0.00000000)
		(-0.98000000 0.21889773 0.00000000)
		(-0.96000000 0.21889773 0.00000000)
		(-0.94000000 0.21889773 0.00000000)
		(-0.92000000 0.21889773 0.00000000)
		(-0.90000000 0.21889773 0.00000000)
		(-0.88000000 0.21889773 0.00000000)
		(-0.86000000 0.21889773 0.00000000)
		(-0.84000000 0.21889773 0.00000000)
		(-0.82000000 0.21889773 0.00000000)
		(-0.80000000 0.21889773 0.00000000)
		(-0.78000000 0.21889773 0.00000000)
		(-0.76000000 0.21889773 0.00000000)
		(-0.74000000 0.21889773 0.00000000)
		(-0.72000000 0.21889773 0.00000000)
		(-0.70000000 0.21889773 0.00000000)
		(-0.68000000 0.21889773 0.00000000)
		(-0.66000000 0.21889773 0.00000000)
		(-0.64000000 0.21889773 0.00000000)
		(-0.62000000 0.21889773 0.00000000)
		(-0.60000000 0.21889773 0.00000000)
		(-0.58000000 0.21889773 0.00000000)
		(-0.56000000 0.21889773 0.00000000)
		(-0.54000000 0.21889773 0.00000000)
		(-0.52000000 0.21889773 0.00000000)
		(-0.50000000 0.21889773 0.00000000)
		(-0.48000000 0.21889773 0.00000000)
		(-0.46000000 0.21889773 0.00000000)
		(-0.44000000 0.21889773 0.00000000)
		(-0.42000000 0.21889773 0.00000000)
		(-0.40000000 0.21889773 0.00000000)
		(-0.38000000 0.21889773 0.00000000)
		(-0.36000000 0.21889773 0.00000000)
		(-0.34000000 0.21889773 0.00000000)
		(-0.32000000 0.21889773 0.00000000)
		(-0.30000000 0.21889773 0.00000000)
		(-0.28000000 0.21889773 0.00000000)
		(-0.26000000 0.21889773 0.00000000)
		(-0.24000000 0.21889773 0.00000000)
		(-0.22000000 0.21889773 0.00000000)
		(-0.20000000 0.21889773 0.00000000)
		(-0.18000000 0.21889773 0.00000000)
		(-0.16000000 0.21889773 0.00000000)
		(-0.14000000 0.21889773 0.00000000)
		(-0.12000000 0.21889773 0.00000000)
		(-0.10000000 0.21889773 0.00000000)
		(-0.08162011 0.21820010 0.00000000)
		(-0.06324022 0.21610719 0.00000000)
		(-0.04486034 0.21261902 0.00000000)
		(-0.02648045 0.20773557 0.00000000)
		(-0.00810056 0.20145686 0.00000000)
		(0.01027933 0.19378288 0.00000000)
		(0.02865922 0.18471362 0.00000000)
		(0.04703911 0.17424910 0.00000000)
		(0.06541899 0.16238930 0.00000000)
		(0.08379888 0.14913424 0.00000000)
		(0.10055866 0.13145601 0.00000000)
		(0.11731844 0.11281749 0.00000000)
		(0.13407821 0.09335482 0.00000000)
		(0.15083799 0.07321020 0.00000000)
		(0.16759777 0.05253076 0.00000000)
		(0.18435754 0.03146759 0.00000000)
		(0.20111732 0.01017455 0.00000000)
		(0.21787709 -0.01119282 0.00000000)
		(0.23463687 -0.03247843 0.00000000)
		(0.25139665 -0.05352678 0.00000000)
		(0.26815642 -0.07418411 0.00000000)
		(0.28491620 -0.09429953 0.00000000)
		(0.30167598 -0.11372608 0.00000000)
		(0.31843575 -0.13232185 0.00000000)
		(0.33519553 -0.14995100 0.00000000)
		(0.35195531 -0.16648475 0.00000000)
		(0.36871508 -0.18180233 0.00000000)
		(0.38547486 -0.19579182 0.00000000)
		(0.40223464 -0.20835104 0.00000000)
		(0.41899441 -0.21938824 0.00000000)
		(0.43575419 -0.22882280 0.00000000)
		(0.45251397 -0.23658580 0.00000000)
		(0.46927374 -0.24262052 0.00000000)
		(0.48603352 -0.24688288 0.00000000)
		(0.50279330 -0.24934175 0.00000000)
		(0.51955307 -0.24997916 0.00000000)
		(0.53631285 -0.24879046 0.00000000)
		(0.55307263 -0.24578432 0.00000000)
		(0.56983240 -0.24098272 0.00000000)
		(0.58659218 -0.23442072 0.00000000)
		(0.60335196 -0.22614627 0.00000000)
		(0.62011173 -0.21621980 0.00000000)
		(0.63687151 -0.20471383 0.00000000)
		(0.65363128 -0.19171242 0.00000000)
		(0.67039106 -0.17731053 0.00000000)
		(0.68715084 -0.16161338 0.00000000)
		(0.70391061 -0.14473564 0.00000000)
		(0.72067039 -0.12680059 0.00000000)
		(0.73743017 -0.10793925 0.00000000)
		(0.75418994 -0.08828941 0.00000000)
		(0.77094972 -0.06799462 0.00000000)
		(0.78770950 -0.04720311 0.00000000)
		(0.80446927 -0.02606679 0.00000000)
		(0.82122905 -0.00474004 0.00000000)
		(0.83798883 0.01662133 0.00000000)
		(0.85474860 0.03786128 0.00000000)
		(0.87150838 0.05882465 0.00000000)
		(0.88826816 0.07935830 0.00000000)
		(0.90502793 0.09931224 0.00000000)
		(0.92178771 0.11854069 0.00000000)
		(0.93854749 0.13690320 0.00000000)
		(0.95530726 0.15426562 0.00000000)
		(0.97206704 0.17050112 0.00000000)
		(0.98882682 0.18549110 0.00000000)
		(1.00558659 0.19912606 0.00000000)
		(1.02234637 0.21130638 0.00000000)
		(1.03910615 0.22194310 0.00000000)
		(1.05586592 0.23095852 0.00000000)
		(1.07262570 0.23828676 0.00000000)
		(1.08938547 0.24387431 0.00000000)
		(1.10614525 0.24768034 0.00000000)
		(1.12290503 0.24967704 0.00000000)
		(1.13966480 0.24984985 0.00000000)
		(1.15642458 0.24819748 0.00000000)
		(1.17318436 0.24473201 0.00000000)
		(1.18994413 0.23947877 0.00000000)
		(1.20670391 0.23247611 0.00000000)
		(1.22346369 0.22377520 0.00000000)
		(1.24022346 0.21343960 0.00000000)
		(1.25698324 0.20154481 0.00000000)
		(1.27374302 0.18817773 0.00000000)
		(1.29050279 0.17343599 0.00000000)
		(1.30726257 0.15742729 0.00000000)
		(1.32402235 0.14026858 0.00000000)
		(1.34078212 0.12208519 0.00000000)
		(1.35754190 0.10300997 0.00000000)
		(1.37430168 0.08318225 0.00000000)
		(1.39106145 0.06274688 0.00000000)
		(1.40782123 0.04185314 0.00000000)
		(1.42458101 0.02065366 0.00000000)
		(1.44134078 -0.00069670 0.00000000)
		(1.45810056 -0.02204197 0.00000000)
		(1.47486034 -0.04322622 0.00000000)
		(1.49162011 -0.06409470 0.00000000)
		(1.50837989 -0.08449496 0.00000000)
		(1.52513966 -0.10427798 0.00000000)
		(1.54189944 -0.12329925 0.00000000)
		(1.55865922 -0.14141980 0.00000000)
		(1.57541899 -0.15850728 0.00000000)
		(1.59217877 -0.17443685 0.00000000)
		(1.60893855 -0.18909215 0.00000000)
		(1.62569832 -0.20236611 0.00000000)
		(1.64245810 -0.21416179 0.00000000)
		(1.65921788 -0.22439299 0.00000000)
		(1.67597765 -0.23298499 0.00000000)
		(1.69273743 -0.23987502 0.00000000)
		(1.70949721 -0.24501275 0.00000000)
		(1.72625698 -0.24836065 0.00000000)
		(1.74301676 -0.24989425 0.00000000)
		(1.75977654 -0.24960236 0.00000000)
		(1.77653631 -0.24748711 0.00000000)
		(1.79329609 -0.24356396 0.00000000)
		(1.81005587 -0.23786155 0.00000000)
		(1.82681564 -0.23042155 0.00000000)
		(1.84357542 -0.22129830 0.00000000)
		(1.86033520 -0.21055846 0.00000000)
		(1.87709497 -0.19828047 0.00000000)
		(1.89385475 -0.18455403 0.00000000)
		(1.91061453 -0.16947942 0.00000000)
		(1.92737430 -0.15316674 0.00000000)
		(1.94413408 -0.13573518 0.00000000)
		(1.96089385 -0.11731206 0.00000000)
		(1.97765363 -0.09803196 0.00000000)
		(1.99441341 -0.07803574 0.00000000)
		(2.01117318 -0.05746946 0.00000000)
		(2.02793296 -0.03648337 0.00000000)
		(2.04469274 -0.01523076 0.00000000)
		(2.06145251 0.00613311 0.00000000)
		(2.07821229 0.02745218 0.00000000)
		(2.09497207 0.04857071 0.00000000)
		(2.11173184 0.06933443 0.00000000)
		(2.12849162 0.08959165 0.00000000)
		(2.14525140 0.10919440 0.00000000)
		(2.16201117 0.12799948 0.00000000)
		(2.17877095 0.14586952 0.00000000)
		(2.19553073 0.16267397 0.00000000)
		(2.21229050 0.17829007 0.00000000)
		(2.22905028 0.19260376 0.00000000)
		(2.24581006 0.20551046 0.00000000)
		(2.26256983 0.21691590 0.00000000)
		(2.27932961 0.22673675 0.00000000)
		(2.29608939 0.23490127 0.00000000)
		(2.31284916 0.24134983 0.00000000)
		(2.32960894 0.24603531 0.00000000)
		(2.34636872 0.24892349 0.00000000)
		(2.36312849 0.24999327 0.00000000)
		(2.37988827 0.24923683 0.00000000)
		(2.39664804 0.24665970 0.00000000)
		(2.41340782 0.24228070 0.00000000)
		(2.43016760 0.23613183 0.00000000)
		(2.44692737 0.22825800 0.00000000)
		(2.46368715 0.21871673 0.00000000)
		(2.48044693 0.20757773 0.00000000)
		(2.49720670 0.19492235 0.00000000)
		(2.51396648 0.18084305 0.00000000)
		(2.53072626 0.16544269 0.00000000)
		(2.54748603 0.14883375 0.00000000)
		(2.56424581 0.13113758 0.00000000)
		(2.58100559 0.11248343 0.00000000)
		(2.59776536 0.09300759 0.00000000)
		(2.61452514 0.07285233 0.00000000)
		(2.63128492 0.05216487 0.00000000)
		(2.64804469 0.03109634 0.00000000)
		(2.66480447 0.00980065 0.00000000)
		(2.68156425 -0.01156663 0.00000000)
		(2.69832402 -0.03284942 0.00000000)
		(2.71508380 -0.05389223 0.00000000)
		(2.73184358 -0.07454137 0.00000000)
		(2.74860335 -0.09464597 0.00000000)
		(2.76536313 -0.11405918 0.00000000)
		(2.78212291 -0.13263918 0.00000000)
		(2.79888268 -0.15025024 0.00000000)
		(2.81564246 -0.16676372 0.00000000)
		(2.83240223 -0.18205897 0.00000000)
		(2.84916201 -0.19602428 0.00000000)
		(2.86592179 -0.20855761 0.00000000)
		(2.88268156 -0.21956742 0.00000000)
		(2.89944134 -0.22897327 0.00000000)
		(2.91620112 -0.23670646 0.00000000)
		(2.93296089 -0.24271049 0.00000000)
		(2.95166480 -0.24385865 0.00000000)
		(2.97036872 -0.24488594 0.00000000)
		(2.98907263 -0.24579238 0.00000000)
		(3.00777654 -0.24657796 0.00000000)
		(3.02648045 -0.24724268 0.00000000)
		(3.04518436 -0.24778655 0.00000000)
		(3.06388827 -0.24820955 0.00000000)
		(3.08259218 -0.24851170 0.00000000)
		(3.10129609 -0.24869298 0.00000000)
		(3.12000000 -0.24875341 0.00000000)
		(3.14000000 -0.24875341 0.00000000)
		(3.16000000 -0.24875341 0.00000000)
		(3.18000000 -0.24875341 0.00000000)
		(3.20000000 -0.24875341 0.00000000)
		(3.22000000 -0.24875341 0.00000000)
		(3.24000000 -0.24875341 0.00000000)
		(3.26000000 -0.24875341 0.00000000)
		(3.28000000 -0.24875341 0.00000000)
		(3.30000000 -0.24875341 0.00000000)
		(3.32000000 -0.24875341 0.00000000)
		(3.34000000 -0.24875341 0.00000000)
		(3.36000000 -0.24875341 0.00000000)
		(3.38000000 -0.24875341 0.00000000)
		(3.40000000 -0.24875341 0.00000000)
		(3.42000000 -0.24875341 0.00000000)
		(3.44000000 -0.24875341 0.00000000)
		(3.46000000 -0.24875341 0.00000000)
		(3.48000000 -0.24875341 0.00000000)
		(3.50000000 -0.24875341 0.00000000)
		(3.52000000 -0.24875341 0.00000000)
		(3.54000000 -0.24875341 0.00000000)
		(3.56000000 -0.24875341 0.00000000)
		(3.58000000 -0.24875341 0.00000000)
		(3.60000000 -0.24875341 0.00000000)
		(3.62000000 -0.24875341 0.00000000)
		(3.64000000 -0.24875341 0.00000000)
		(3.66000000 -0.24875341 0.00000000)
		(3.68000000 -0.24875341 0.00000000)
		(3.70000000 -0.24875341 0.00000000)
		(3.72000000 -0.24875341 0.00000000)
		(3.74000000 -0.24875341 0.00000000)
		(3.76000000 -0.24875341 0.00000000)
		(3.78000000 -0.24875341 0.00000000)
		(3.80000000 -0.24875341 0.00000000)
		(3.82000000 -0.24875341 0.00000000)
		(3.84000000 -0.24875341 0.00000000)
		(3.86000000 -0.24875341 0.00000000)
		(3.88000000 -0.24875341 0.00000000)
		(3.90000000 -0.24875341 0.00000000)
		(3.92000000 -0.24875341 0.00000000)
		(3.94000000 -0.24875341 0.00000000)
		(3.96000000 -0.24875341 0.00000000)
		(3.98000000 -0.24875341 0.00000000)
		(4.00000000 -0.24875341 0.00000000)
	)
	polyLine 4 5
	(
		(-1.00000000 0.21889773 0.10000000)
		(-0.98000000 0.21889773 0.10000000)
		(-0.96000000 0.21889773 0.10000000)
		(-0.94000000 0.21889773 0.10000000)
		(-0.92000000 0.21889773 0.10000000)
		(-0.90000000 0.21889773 0.10000000)
		(-0.88000000 0.21889773 0.10000000)
		(-0.86000000 0.21889773 0.10000000)
		(-0.84000000 0.21889773 0.10000000)
		(-0.82000000 0.21889773 0.10000000)
		(-0.80000000 0.21889773 0.10000000)
		(-0.78000000 0.21889773 0.10000000)
		(-0.76000000 0.21889773 0.10000000)
		(-0.74000000 0.21889773 0.10000000)
		(-0.72000000 0.21889773 0.10000000)
		(-0.70000000 0.21889773 0.10000000)
		(-0.68000000 0.21889773 0.10000000)
		(-0.66000000 0.21889773 0.10000000)
		(-0.64000000 0.21889773 0.10000000)
		(-0.62000000 0.21889773 0.10000000)
		(-0.60000000 0.21889773 0.10000000)
		(-0.58000000 0.21889773 0.10000000)
		(-0.56000000 0.21889773 0.10000000)
		(-0.54000000 0.21889773 0.10000000)
		(-0.52000000 0.21889773 0.10000000)
		(-0.50000000 0.21889773 0.10000000)
		(-0.48000000 0.21889773 0.10000000)
		(-0.46000000 0.21889773 0.10000000)
		(-0.44000000 0.21889773 0.10000000)
		(-0.42000000 0.21889773 0.10000000)
		(-0.40000000 0.21889773 0.10000000)
		(-0.38000000 0.21889773 0.10000000)
		(-0.36000000 0.21889773 0.10000000)
		(-0.34000000 0.21889773 0.10000000)
		(-0.32000000 0.21889773 0.10000000)
		(-0.30000000 0.21889773 0.10000000)
		(-0.28000000 0.21889773 0.10000000)
		(-0.26000000 0.21889773 0.10000000)
		(-0.24000000 0.21889773 0.10000000)
		(-0.22000000 0.21889773 0.10000000)
		(-0.20000000 0.21889773 0.10000000)
		(-0.18000000 0.21889773 0.10000000)
		(-0.16000000 0.21889773 0.10000000)
		(-0.14000000 0.21889773 0.10000000)
		(-0.12000000 0.21889773 0.10000000)
		(-0.10000000 0.21889773 0.10000000)
		(-0.08162011 0.21820010 0.10000000)
		(-0.06324022 0.21610719 0.10000000)
		(-0.04486034 0.21261902 0.10000000)
		(-0.02648045 0.20773557 0.10000000)
		(-0.00810056 0.20145686 0.10000000)
		(0.01027933 0.19378288 0.10000000)
		(0.02865922 0.18471362 0.10000000)
		(0.04703911 0.17424910 0.10000000)
		(0.06541899 0.16238930 0.10000000)
		(0.08379888 0.14913424 0.10000000)
		(0.10055866 0.13145601 0.10000000)
		(0.11731844 0.11281749 0.10000000)
		(0.13407821 0.09335482 0.10000000)
		(0.15083799 0.07321020 0.10000000)
		(0.16759777 0.05253076 0.10000000)
		(0.18435754 0.03146759 0.10000000)
		(0.20111732 0.01017455 0.10000000)
		(0.21787709 -0.01119282 0.10000000)
		(0.23463687 -0.03247843 0.10000000)
		(0.25139665 -0.05352678 0.10000000)
		(0.26815642 -0.07418411 0.10000000)
		(0.28491620 -0.09429953 0.10000000)
		(0.30167598 -0.11372608 0.10000000)
		(0.31843575 -0.13232185 0.10000000)
		(0.33519553 -0.14995100 0.10000000)
		(0.35195531 -0.16648475 0.10000000)
		(0.36871508 -0.18180233 0.10000000)
		(0.38547486 -0.19579182 0.10000000)
		(0.40223464 -0.20835104 0.10000000)
		(0.41899441 -0.21938824 0.10000000)
		(0.43575419 -0.22882280 0.10000000)
		(0.45251397 -0.23658580 0.10000000)
		(0.46927374 -0.24262052 0.10000000)
		(0.48603352 -0.24688288 0.10000000)
		(0.50279330 -0.24934175 0.10000000)
		(0.51955307 -0.24997916 0.10000000)
		(0.53631285 -0.24879046 0.10000000)
		(0.55307263 -0.24578432 0.10000000)
		(0.56983240 -0.24098272 0.10000000)
		(0.58659218 -0.23442072 0.10000000)
		(0.60335196 -0.22614627 0.10000000)
		(0.62011173 -0.21621980 0.10000000)
		(0.63687151 -0.20471383 0.10000000)
		(0.65363128 -0.19171242 0.10000000)
		(0.67039106 -0.17731053 0.10000000)
		(0.68715084 -0.16161338 0.10000000)
		(0.70391061 -0.14473564 0.10000000)
		(0.72067039 -0.12680059 0.10000000)
		(0.73743017 -0.10793925 0.10000000)
		(0.75418994 -0.08828941 0.10000000)
		(0.77094972 -0.06799462 0.10000000)
		(0.78770950 -0.04720311 0.10000000)
		(0.80446927 -0.02606679 0.10000000)
		(0.82122905 -0.00474004 0.10000000)
		(0.83798883 0.01662133 0.10000000)
		(0.85474860 0.03786128 0.10000000)
		(0.87150838 0.05882465 0.10000000)
		(0.88826816 0.07935830 0.10000000)
		(0.90502793 0.09931224 0.10000000)
		(0.92178771 0.11854069 0.10000000)
		(0.93854749 0.13690320 0.10000000)
		(0.95530726 0.15426562 0.10000000)
		(0.97206704 0.17050112 0.10000000)
		(0.98882682 0.18549110 0.10000000)
		(1.00558659 0.19912606 0.10000000)
		(1.02234637 0.21130638 0.10000000)
		(1.03910615 0.22194310 0.10000000)
		(1.05586592 0.23095852 0.10000000)
		(1.07262570 0.23828676 0.10000000)
		(1.08938547 0.24387431 0.10000000)
		(1.10614525 0.24768034 0.10000000)
		(1.12290503 0.24967704 0.10000000)
		(1.13966480 0.24984985 0.10000000)
		(1.15642458 0.24819748 0.10000000)
		(1.17318436 0.24473201 0.10000000)
		(1.18994413 0.23947877 0.10000000)
		(1.20670391 0.23247611 0.10000000)
		(1.22346369 0.22377520 0.10000000)
		(1.24022346 0.21343960 0.10000000)
		(1.25698324 0.20154481 0.10000000)
		(1.27374302 0.18817773 0.10000000)
		(1.29050279 0.17343599 0.10000000)
		(1.30726257 0.15742729 0.10000000)
		(1.32402235 0.14026858 0.10000000)
		(1.34078212 0.12208519 0.10000000)
		(1.35754190 0.10300997 0.10000000)
		(1.37430168 0.08318225 0.10000000)
		(1.39106145 0.06274688 0.10000000)
		(1.40782123 0.04185314 0.10000000)
		(1.42458101 0.02065366 0.10000000)
		(1.44134078 -0.00069670 0.10000000)
		(1.45810056 -0.02204197 0.10000000)
		(1.47486034 -0.04322622 0.10000000)
		(1.49162011 -0.06409470 0.10000000)
		(1.50837989 -0.08449496 0.10000000)
		(1.52513966 -0.10427798 0.10000000)
		(1.54189944 -0.12329925 0.10000000)
		(1.55865922 -0.14141980 0.10000000)
		(1.57541899 -0.15850728 0.10000000)
		(1.59217877 -0.17443685 0.10000000)
		(1.60893855 -0.18909215 0.10000000)
		(1.62569832 -0.20236611 0.10000000)
		(1.64245810 -0.21416179 0.10000000)
		(1.65921788 -0.22439299 0.10000000)
		(1.67597765 -0.23298499 0.10000000)
		(1.69273743 -0.23987502 0.10000000)
		(1.70949721 -0.24501275 0.10000000)
		(1.72625698 -0.24836065 0.10000000)
		(1.74301676 -0.24989425 0.10000000)
		(1.75977654 -0.24960236 0.10000000)
		(1.77653631 -0.24748711 0.10000000)
		(1.79329609 -0.24356396 0.10000000)
		(1.81005587 -0.23786155 0.10000000)
		(1.82681564 -0.23042155 0.10000000)
		(1.84357542 -0.22129830 0.10000000)
		(1.86033520 -0.21055846 0.10000000)
		(1.87709497 -0.19828047 0.10000000)
		(1.89385475 -0.18455403 0.10000000)
		(1.91061453 -0.16947942 0.10000000)
		(1.92737430 -0.15316674 0.10000000)
		(1.94413408 -0.13573518 0.10000000)
		(1.96089385 -0.11731206 0.10000000)
		(1.97765363 -0.09803196 0.10000000)
		(1.99441341 -0.07803574 0.10000000)
		(2.01117318 -0.05746946 0.10000000)
		(2.02793296 -0.03648337 0.10000000)
		(2.04469274 -0.01523076 0.10000000)
		(2.06145251 0.00613311 0.10000000)
		(2.07821229 0.02745218 0.10000000)
		(2.09497207 0.04857071 0.10000000)
		(2.11173184 0.06933443 0.10000000)
		(2.12849162 0.08959165 0.10000000)
		(2.14525140 0.10919440 0.10000000)
		(2.16201117 0.12799948 0.10000000)
		(2.17877095 0.14586952 0.10000000)
		(2.19553073 0.16267397 0.10000000)
		(2.21229050 0.17829007 0.10000000)
		(2.22905028 0.19260376 0.10000000)
		(2.24581006 0.20551046 0.10000000)
		(2.26256983 0.21691590 0.10000000)
		(2.27932961 0.22673675 0.10000000)
		(2.29608939 0.23490127 0.10000000)
		(2.31284916 0.24134983 0.10000000)
		(2.32960894 0.24603531 0.10000000)
		(2.34636872 0.24892349 0.10000000)
		(2.36312849 0.24999327 0.10000000)
		(2.37988827 0.24923683 0.10000000)
		(2.39664804 0.24665970 0.10000000)
		(2.41340782 0.24228070 0.10000000)
		(2.43016760 0.23613183 0.10000000)
		(2.44692737 0.22825800 0.10000000)
		(2.46368715 0.21871673 0.10000000)
		(2.48044693 0.20757773 0.10000000)
		(2.49720670 0.19492235 0.10000000)
		(2.51396648 0.18084305 0.10000000)
		(2.53072626 0.16544269 0.10000000)
		(2.54748603 0.14883375 0.10000000)
		(2.56424581 0.13113758 0.10000000)
		(2.58100559 0.11248343 0.10000000)
		(2.59776536 0.09300759 0.10000000)
		(2.61452514 0.07285233 0.10000000)
		(2.63128492 0.05216487 0.10000000)
		(2.64804469 0.03109634 0.10000000)
		(2.66480447 0.00980065 0.10000000)
		(2.68156425 -0.01156663 0.10000000)
		(2.69832402 -0.03284942 0.10000000)
		(2.71508380 -0.05389223 0.10000000)
		(2.73184358 -0.07454137 0.10000000)
		(2.74860335 -0.09464597 0.10000000)
		(2.76536313 -0.11405918 0.10000000)
		(2.78212291 -0.13263918 0.10000000)
		(2.79888268 -0.15025024 0.10000000)
		(2.81564246 -0.16676372 0.10000000)
		(2.83240223 -0.18205897 0.10000000)
		(2.84916201 -0.19602428 0.10000000)
		(2.86592179 -0.20855761 0.10000000)
		(2.88268156 -0.21956742 0.10000000)
		(2.89944134 -0.22897327 0.10000000)
		(2.91620112 -0.23670646 0.10000000)
		(2.93296089 -0.24271049 0.10000000)
		(2.95166480 -0.24385865 0.10000000)
		(2.97036872 -0.24488594 0.10000000)
		(2.98907263 -0.24579238 0.10000000)
		(3.00777654 -0.24657796 0.10000000)
		(3.02648045 -0.24724268 0.10000000)
		(3.04518436 -0.24778655 0.10000000)
		(3.06388827 -0.24820955 0.10000000)
		(3.08259218 -0.24851170 0.10000000)
		(3.10129609 -0.24869298 0.10000000)
		(3.12000000 -0.24875341 0.10000000)
		(3.14000000 -0.24875341 0.10000000)
		(3.16000000 -0.24875341 0.10000000)
		(3.18000000 -0.24875341 0.10000000)
		(3.20000000 -0.24875341 0.10000000)
		(3.22000000 -0.24875341 0.10000000)
		(3.24000000 -0.24875341 0.10000000)
		(3.26000000 -0.24875341 0.10000000)
		(3.28000000 -0.24875341 0.10000000)
		(3.30000000 -0.24875341 0.10000000)
		(3.32000000 -0.24875341 0.10000000)
		(3.34000000 -0.24875341 0.10000000)
		(3.36000000 -0.24875341 0.10000000)
		(3.38000000 -0.24875341 0.10000000)
		(3.40000000 -0.24875341 0.10000000)
		(3.42000000 -0.24875341 0.10000000)
		(3.44000000 -0.24875341 0.10000000)
		(3.46000000 -0.24875341 0.10000000)
		(3.48000000 -0.24875341 0.10000000)
		(3.50000000 -0.24875341 0.10000000)
		(3.52000000 -0.24875341 0.10000000)
		(3.54000000 -0.24875341 0.10000000)
		(3.56000000 -0.24875341 0.10000000)
		(3.58000000 -0.24875341 0.10000000)
		(3.60000000 -0.24875341 0.10000000)
		(3.62000000 -0.24875341 0.10000000)
		(3.64000000 -0.24875341 0.10000000)
		(3.66000000 -0.24875341 0.10000000)
		(3.68000000 -0.24875341 0.10000000)
		(3.70000000 -0.24875341 0.10000000)
		(3.72000000 -0.24875341 0.10000000)
		(3.74000000 -0.24875341 0.10000000)
		(3.76000000 -0.24875341 0.10000000)
		(3.78000000 -0.24875341 0.10000000)
		(3.80000000 -0.24875341 0.10000000)
		(3.82000000 -0.24875341 0.10000000)
		(3.84000000 -0.24875341 0.10000000)
		(3.86000000 -0.24875341 0.10000000)
		(3.88000000 -0.24875341 0.10000000)
		(3.90000000 -0.24875341 0.10000000)
		(3.92000000 -0.24875341 0.10000000)
		(3.94000000 -0.24875341 0.10000000)
		(3.96000000 -0.24875341 0.10000000)
		(3.98000000 -0.24875341 0.10000000)
		(4.00000000 -0.24875341 0.10000000)
	)
	polyLine 3 2
	(
		(-1.00000000 0.71889773 0.00000000)
		(-0.98000000 0.71785969 0.00000000)
		(-0.96000000 0.71682165 0.00000000)
		(-0.94000000 0.71578360 0.00000000)
		(-0.92000000 0.71474556 0.00000000)
		(-0.90000000 0.71370751 0.00000000)
		(-0.88000000 0.71266947 0.00000000)
		(-0.86000000 0.71163143 0.00000000)
		(-0.84000000 0.71059338 0.00000000)
		(-0.82000000 0.70955534 0.00000000)
		(-0.80000000 0.70851730 0.00000000)
		(-0.78000000 0.70747925 0.00000000)
		(-0.76000000 0.70644121 0.00000000)
		(-0.74000000 0.70540316 0.00000000)
		(-0.72000000 0.70436512 0.00000000)
		(-0.70000000 0.70332708 0.00000000)
		(-0.68000000 0.70228903 0.00000000)
		(-0.66000000 0.70125099 0.00000000)
		(-0.64000000 0.70021295 0.00000000)
		(-0.62000000 0.69917490 0.00000000)
		(-0.60000000 0.69813686 0.00000000)
		(-0.58000000 0.69709881 0.00000000)
		(-0.56000000 0.69606077 0.00000000)
		(-0.54000000 0.69502273 0.00000000)
		(-0.52000000 0.69398468 0.00000000)
		(-0.50000000 0.69294664 0.00000000)
		(-0.48000000 0.69190860 0.00000000)
		(-0.46000000 0.69087055 0.00000000)
		(-0.44000000 0.68983251 0.00000000)
		(-0.42000000 0.68879447 0.00000000)
		(-0.40000000 0.68775642 0.00000000)
		(-0.38000000 0.68671838 0.00000000)
		(-0.36000000 0.68568033 0.00000000)
		(-0.34000000 0.68464229 0.00000000)
		(-0.32000000 0.68360425 0.00000000)
		(-0.30000000 0.68256620 0.00000000)
		(-0.28000000 0.68152816 0.00000000)
		(-0.26000000 0.68049012 0.00000000)
		(-0.24000000 0.67945207 0.00000000)
		(-0.22000000 0.67841403 0.00000000)
		(-0.20000000 0.67737598 0.00000000)
		(-0.18000000 0.67633794 0.00000000)
		(-0.16000000 0.67529990 0.00000000)
		(-0.14000000 0.67426185 0.00000000)
		(-0.12000000 0.67322381 0.00000000)
		(-0.10000000 0.67218577 0.00000000)
		(-0.08162011 0.67181887 0.00000000)
		(-0.06324022 0.67025117 0.00000000)
		(-0.04486034 0.66748267 0.00000000)
		(-0.02648045 0.66351337 0.00000000)
		(-0.00810056 0.65834326 0.00000000)
		(0.01027933 0.65197235 0.00000000)
		(0.02865922 0.64440064 0.00000000)
		(0.04703911 0.63562813 0.00000000)
		(0.06541899 0.62565481 0.00000000)
		(0.08379888 0.61448068 0.00000000)
		(0.10055866 0.60091025 0.00000000)
		(0.11731844 0.58660267 0.00000000)
		(0.13407821 0.57166244 0.00000000)
		(0.15083799 0.55619872 0.00000000)
		(0.16759777 0.54032446 0.00000000)
		(0.18435754 0.52415563 0.00000000)
		(0.20111732 0.50781034 0.00000000)
		(0.21787709 0.49140799 0.00000000)
		(0.23463687 0.47506842 0.00000000)
		(0.25139665 0.45891096 0.00000000)
		(0.26815642 0.44305367 0.00000000)
		(0.28491620 0.42761237 0.00000000)
		(0.30167598 0.41269987 0.00000000)
		(0.31843575 0.39842510 0.00000000)
		(0.33519553 0.38489234 0.00000000)
		(0.35195531 0.37220045 0.00000000)
		(0.36871508 0.36044215 0.00000000)
		(0.38547486 0.34970332 0.00000000)
		(0.40223464 0.34006242 0.00000000)
		(0.41899441 0.33158987 0.00000000)
		(0.43575419 0.32434758 0.00000000)
		(0.45251397 0.31838843 0.00000000)
		(0.46927374 0.31375596 0.00000000)
		(0.48603352 0.31048403 0.00000000)
		(0.50279330 0.30859651 0.00000000)
		(0.51955307 0.30810721 0.00000000)
		(0.53631285 0.30901970 0.00000000)
		(0.55307263 0.31132732 0.00000000)
		(0.56983240 0.31501320 0.00000000)
		(0.58659218 0.32005042 0.00000000)
		(0.60335196 0.32640218 0.00000000)
		(0.62011173 0.33402208 0.00000000)
		(0.63687151 0.34285447 0.00000000)
		(0.65363128 0.35283481 0.00000000)
		(0.67039106 0.36389020 0.00000000)
		(0.68715084 0.37593989 0.00000000)
		(0.70391061 0.38889584 0.00000000)
		(0.72067039 0.40266341 0.00000000)
		(0.73743017 0.41714204 0.00000000)
		(0.75418994 0.43222594 0.00000000)
		(0.77094972 0.44780494 0.00000000)
		(0.78770950 0.46376523 0.00000000)
		(0.80446927 0.47999022 0.00000000)
		(0.82122905 0.49636138 0.00000000)
		(0.83798883 0.51275911 0.00000000)
		(0.85474860 0.52906365 0.00000000)
		(0.87150838 0.54515587 0.00000000)
		(0.88826816 0.56091822 0.00000000)
		(0.90502793 0.57623556 0.00000000)
		(0.92178771 0.59099600 0.00000000)
		(0.93854749 0.60509171 0.00000000)
		(0.95530726 0.61841971 0.00000000)
		(0.97206704 0.63088265 0.00000000)
		(0.98882682 0.64238949 0.00000000)
		(1.00558659 0.65285616 0.00000000)
		(1.02234637 0.66220620 0.00000000)
		(1.03910615 0.67037132 0.00000000)
		(1.05586592 0.67729187 0.00000000)
		(1.07262570 0.68291729 0.00000000)
		(1.08938547 0.68720649 0.00000000)
		(1.10614525 0.69012813 0.00000000)
		(1.12290503 0.69166087 0.00000000)
		(1.13966480 0.69179352 0.00000000)
		(1.15642458 0.69052511 0.00000000)
		(1.17318436 0.68786489 0.00000000)
		(1.18994413 0.68383232 0.00000000)
		(1.20670391 0.67845683 0.00000000)
		(1.22346369 0.67177771 0.00000000)
		(1.24022346 0.66384374 0.00000000)
		(1.25698324 0.65471288 0.00000000)
		(1.27374302 0.64445183 0.00000000)
		(1.29050279 0.63313556 0.00000000)
		(1.30726257 0.62084672 0.00000000)
		(1.32402235 0.60767509 0.00000000)
		(1.34078212 0.59371688 0.00000000)
		(1.35754190 0.57907407 0.00000000)
		(1.37430168 0.56385362 0.00000000)
		(1.39106145 0.54816671 0.00000000)
		(1.40782123 0.53212794 0.00000000)
		(1.42458101 0.51585447 0.00000000)
		(1.44134078 0.49946519 0.00000000)
		(1.45810056 0.48307981 0.00000000)
		(1.47486034 0.46681804 0.00000000)
		(1.49162011 0.45079866 0.00000000)
		(1.50837989 0.43513870 0.00000000)
		(1.52513966 0.41995256 0.00000000)
		(1.54189944 0.40535117 0.00000000)
		(1.55865922 0.39144119 0.00000000)
		(1.57541899 0.37832424 0.00000000)
		(1.59217877 0.36609615 0.00000000)
		(1.60893855 0.35484622 0.00000000)
		(1.62569832 0.34465666 0.00000000)
		(1.64245810 0.33560189 0.00000000)
		(1.65921788 0.32774806 0.00000000)
		(1.67597765 0.32115253 0.00000000)
		(1.69273743 0.31586350 0.00000000)
		(1.70949721 0.31191960 0.00000000)
		(1.72625698 0.30934964 0.00000000)
		(1.74301676 0.30817239 0.00000000)
		(1.75977654 0.30839646 0.00000000)
		(1.77653631 0.31002020 0.00000000)
		(1.79329609 0.31303175 0.00000000)
		(1.81005587 0.31740912 0.00000000)
		(1.82681564 0.32312032 0.00000000)
		(1.84357542 0.33012365 0.00000000)
		(1.86033520 0.33836793 0.00000000)
		(1.87709497 0.34779294 0.00000000)
		(1.89385475 0.35832984 0.00000000)
		(1.91061453 0.36990164 0.00000000)
		(1.92737430 0.38242383 0.00000000)
		(1.94413408 0.39580491 0.00000000)
		(1.96089385 0.40994714 0.00000000)
		(1.97765363 0.42474722 0.00000000)
		(1.99441341 0.44009702 0.00000000)
		(2.01117318 0.45588442 0.00000000)
		(2.02793296 0.47199409 0.00000000)
		(2.04469274 0.48830834 0.00000000)
		(2.06145251 0.50470799 0.00000000)
		(2.07821229 0.52107326 0.00000000)
		(2.09497207 0.53728458 0.00000000)
		(2.11173184 0.55322354 0.00000000)
		(2.12849162 0.56877370 0.00000000)
		(2.14525140 0.58382146 0.00000000)
		(2.16201117 0.59825690 0.00000000)
		(2.17877095 0.61197457 0.00000000)
		(2.19553073 0.62487425 0.00000000)
		(2.21229050 0.63686172 0.00000000)
		(2.22905028 0.64784941 0.00000000)
		(2.24581006 0.65775705 0.00000000)
		(2.26256983 0.66651226 0.00000000)
		(2.27932961 0.67405110 0.00000000)
		(2.29608939 0.68031847 0.00000000)
		(2.31284916 0.68526861 0.00000000)
		(2.32960894 0.68886535 0.00000000)
		(2.34636872 0.69108242 0.00000000)
		(2.36312849 0.69190362 0.00000000)
		(2.37988827 0.69132295 0.00000000)
		(2.39664804 0.68934465 0.00000000)
		(2.41340782 0.68598318 0.00000000)
		(2.43016760 0.68126309 0.00000000)
		(2.44692737 0.67521886 0.00000000)
		(2.46368715 0.66789465 0.00000000)
		(2.48044693 0.65934396 0.00000000)
		(2.49720670 0.64962924 0.00000000)
		(2.51396648 0.63882148 0.00000000)