/*--------------------------------*- C++ -*----------------------------------*\\
/*--------------------------------*- C++ -*----------------------------------*\\
| =========                 |                                                 |
| \\\\      /  F ield         | OpenFOAM: The Open Source CFD Toolbox           |
|  \\\\    /   O peration     | Version:  v2012                                 |
|   \\\\  /    A nd           | Website:  www.openfoam.com                      |
|    \\\\/     M anipulation  |                                                 |
\\*---------------------------------------------------------------------------*/
FoamFile
{
    version     2.0;
    format      ascii;
    class       dictionary;
    object      blockMeshDict;
}
// * * * * * * * * * * * * * * * * * * * * * * * * * * * * * * * * * * * * * //

scale   0.01;

xmin -1;
xmax 5;
ymin 0;
ymax 0.5;
zmin 0;
zmax 0.1;

vertices
(
    (-1.00000000 0.14330144 0.00000000)
    (4.00000000 0.23938795 0.00000000)
    (4.00000000 0.73938795 0.00000000)
    (-1.00000000 0.64330144 0.00000000)
    (-1.00000000 0.14330144 0.10000000)
    (4.00000000 0.23938795 0.10000000)
    (4.00000000 0.73938795 0.10000000)
    (-1.00000000 0.64330144 0.10000000)
);

blocks
(
    hex (0 1 2 3 4 5 6 7) (200 20 1) simpleGrading (1 1 1)
);

edges
(
	polyLine 0 1
	(
		(-1.00000000 0.14330144 0.00000000)
		(-0.98000000 0.14330144 0.00000000)
		(-0.96000000 0.14330144 0.00000000)
		(-0.94000000 0.14330144 0.00000000)
		(-0.92000000 0.14330144 0.00000000)
		(-0.90000000 0.14330144 0.00000000)
		(-0.88000000 0.14330144 0.00000000)
		(-0.86000000 0.14330144 0.00000000)
		(-0.84000000 0.14330144 0.00000000)
		(-0.82000000 0.14330144 0.00000000)
		(-0.80000000 0.14330144 0.00000000)
		(-0.78000000 0.14330144 0.00000000)
		(-0.76000000 0.14330144 0.00000000)
		(-0.74000000 0.14330144 0.00000000)
		(-0.72000000 0.14330144 0.00000000)
		(-0.70000000 0.14330144 0.00000000)
		(-0.68000000 0.14330144 0.00000000)
		(-0.66000000 0.14330144 0.00000000)
		(-0.64000000 0.14330144 0.00000000)
		(-0.62000000 0.14330144 0.00000000)
		(-0.60000000 0.14330144 0.00000000)
		(-0.58000000 0.14330144 0.00000000)
		(-0.56000000 0.14330144 0.00000000)
		(-0.54000000 0.14330144 0.00000000)
		(-0.52000000 0.14330144 0.00000000)
		(-0.50000000 0.14330144 0.00000000)
		(-0.48000000 0.14330144 0.00000000)
		(-0.46000000 0.14330144 0.00000000)
		(-0.44000000 0.14330144 0.00000000)
		(-0.42000000 0.14330144 0.00000000)
		(-0.40000000 0.14330144 0.00000000)
		(-0.38000000 0.14330144 0.00000000)
		(-0.36000000 0.14330144 0.00000000)
		(-0.34000000 0.14330144 0.00000000)
		(-0.32000000 0.14330144 0.00000000)
		(-0.30000000 0.14330144 0.00000000)
		(-0.28000000 0.14330144 0.00000000)
		(-0.26000000 0.14330144 0.00000000)
		(-0.24000000 0.14330144 0.00000000)
		(-0.22000000 0.14330144 0.00000000)
		(-0.20000000 0.14330144 0.00000000)
		(-0.18000000 0.14330144 0.00000000)
		(-0.16000000 0.14330144 0.00000000)
		(-0.14000000 0.14330144 0.00000000)
		(-0.12000000 0.14330144 0.00000000)
		(-0.10000000 0.14330144 0.00000000)
		(-0.08162011 0.14259382 0.00000000)
		(-0.06324022 0.14047095 0.00000000)
		(-0.04486034 0.13693285 0.00000000)
		(-0.02648045 0.13197950 0.00000000)
		(-0.00810056 0.12561091 0.00000000)
		(0.01027933 0.11782707 0.00000000)
		(0.02865922 0.10862799 0.00000000)
		(0.04703911 0.09801367 0.00000000)
		(0.06541899 0.08598411 0.00000000)
		(0.08379888 0.07253930 0.00000000)
		(0.10055866 0.05728322 0.00000000)
		(0.11731844 0.04179838 0.00000000)
		(0.13407821 0.02614662 0.00000000)
		(0.15083799 0.01039044 0.00000000)
		(0.16759777 -0.00540722 0.00000000)
		(0.18435754 -0.02118330 0.00000000)
		(0.20111732 -0.03687478 0.00000000)
		(0.21787709 -0.05241900 0.00000000)
		(0.23463687 -0.06775389 0.00000000)
		(0.25139665 -0.08281821 0.00000000)
		(0.26815642 -0.09755180 0.00000000)
		(0.28491620 -0.11189582 0.00000000)
		(0.30167598 -0.12579298 0.00000000)
		(0.31843575 -0.13918780 0.00000000)
		(0.33519553 -0.15202678 0.00000000)
		(0.35195531 -0.16425864 0.00000000)
		(0.36871508 -0.17583454 0.00000000)
		(0.38547486 -0.18670826 0.00000000)
		(0.40223464 -0.19683636 0.00000000)
		(0.41899441 -0.20617841 0.00000000)
		(0.43575419 -0.21469709 0.00000000)
		(0.45251397 -0.22235839 0.00000000)
		(0.46927374 -0.22913170 0.00000000)
		(0.48603352 -0.23498999 0.00000000)
		(0.50279330 -0.23990986 0.00000000)
		(0.51955307 -0.24387166 0.00000000)
		(0.53631285 -0.24685956 0.00000000)
		(0.55307263 -0.24886165 0.00000000)
		(0.56983240 -0.24986991 0.00000000)
		(0.58659218 -0.24988033 0.00000000)
		(0.60335196 -0.24889286 0.00000000)
		(0.62011173 -0.24691145 0.00000000)
		(0.63687151 -0.24394401 0.00000000)
		(0.65363128 -0.24000238 0.00000000)
		(0.67039106 -0.23510232 0.00000000)
		(0.68715084 -0.22926339 0.00000000)
		(0.70391061 -0.22250890 0.00000000)
		(0.72067039 -0.21486583 0.00000000)
		(0.73743017 -0.20636471 0.00000000)
		(0.75418994 -0.19703947 0.00000000)
		(0.77094972 -0.18692737 0.00000000)
		(0.78770950 -0.17606878 0.00000000)
		(0.80446927 -0.16450706 0.00000000)
		(0.82122905 -0.15228840 0.00000000)
		(0.83798883 -0.13946157 0.00000000)
		(0.85474860 -0.12607782 0.00000000)
		(0.87150838 -0.11219057 0.00000000)
		(0.88826816 -0.09785530 0.00000000)
		(0.90502793 -0.08312925 0.00000000)
		(0.92178771 -0.06807122 0.00000000)
		(0.93854749 -0.05274136 0.00000000)
		(0.95530726 -0.03720087 0.00000000)
		(0.97206704 -0.02151182 0.00000000)
		(0.98882682 -0.00573687 0.00000000)
		(1.00558659 0.01006099 0.00000000)
		(1.02234637 0.02581868 0.00000000)
		(1.03910615 0.04147326 0.00000000)
		(1.05586592 0.05696222 0.00000000)
		(1.07262570 0.07222370 0.00000000)
		(1.08938547 0.08719676 0.00000000)
		(1.10614525 0.10182160 0.00000000)
		(1.12290503 0.11603982 0.00000000)
		(1.13966480 0.12979464 0.00000000)
		(1.15642458 0.14303113 0.00000000)
		(1.17318436 0.15569644 0.00000000)
		(1.18994413 0.16773997 0.00000000)
		(1.20670391 0.17911365 0.00000000)
		(1.22346369 0.18977204 0.00000000)
		(1.24022346 0.19967258 0.00000000)
		(1.25698324 0.20877574 0.00000000)
		(1.27374302 0.21704516 0.00000000)
		(1.29050279 0.22444782 0.00000000)
		(1.30726257 0.23095416 0.00000000)
		(1.32402235 0.23653819 0.00000000)
		(1.34078212 0.24117762 0.00000000)
		(1.35754190 0.24485391 0.00000000)
		(1.37430168 0.24755239 0.00000000)
		(1.39106145 0.24926228 0.00000000)
		(1.40782123 0.24997675 0.00000000)
		(1.42458101 0.24969295 0.00000000)
		(1.44134078 0.24841201 0.00000000)
		(1.45810056 0.24613905 0.00000000)
		(1.47486034 0.24288314 0.00000000)
		(1.49162011 0.23865729 0.00000000)
		(1.50837989 0.23347837 0.00000000)
		(1.52513966 0.22736706 0.00000000)
		(1.54189944 0.22034777 0.00000000)
		(1.55865922 0.21244854 0.00000000)
		(1.57541899 0.20370089 0.00000000)
		(1.59217877 0.19413978 0.00000000)
		(1.60893855 0.18380338 0.00000000)
		(1.62569832 0.17273297 0.00000000)
		(1.64245810 0.16097275 0.00000000)
		(1.65921788 0.14856970 0.00000000)
		(1.67597765 0.13557334 0.00000000)
		(1.69273743 0.12203557 0.00000000)
		(1.70949721 0.10801046 0.00000000)
		(1.72625698 0.09355401 0.00000000)
		(1.74301676 0.07872396 0.00000000)
		(1.75977654 0.06357953 0.00000000)
		(1.77653631 0.04818120 0.00000000)
		(1.79329609 0.03259045 0.00000000)
		(1.81005587 0.01686956 0.00000000)
		(1.82681564 0.00108130 0.00000000)
		(1.84357542 -0.01471127 0.00000000)
		(1.86033520 -0.03044510 0.00000000)
		(1.87709497 -0.04605735 0.00000000)
		(1.89385475 -0.06148567 0.00000000)
		(1.91061453 -0.07666845 0.00000000)
		(1.92737430 -0.09154506 0.00000000)
		(1.94413408 -0.10605608 0.00000000)
		(1.96089385 -0.12014358 0.00000000)
		(1.97765363 -0.13375128 0.00000000)
		(1.99441341 -0.14682486 0.00000000)
		(2.01117318 -0.15931210 0.00000000)
		(2.02793296 -0.17116313 0.00000000)
		(2.04469274 -0.18233062 0.00000000)
		(2.06145251 -0.19276999 0.00000000)
		(2.07821229 -0.20243954 0.00000000)
		(2.09497207 -0.21130066 0.00000000)
		(2.11173184 -0.21931795 0.00000000)
		(2.12849162 -0.22645941 0.00000000)
		(2.14525140 -0.23269651 0.00000000)
		(2.16201117 -0.23800435 0.00000000)
		(2.17877095 -0.24236172 0.00000000)
		(2.19553073 -0.24575124 0.00000000)
		(2.21229050 -0.24815936 0.00000000)
		(2.22905028 -0.24957646 0.00000000)
		(2.24581006 -0.24999689 0.00000000)
		(2.26256983 -0.24941897 0.00000000)
		(2.27932961 -0.24784500 0.00000000)
		(2.29608939 -0.24528128 0.00000000)
		(2.31284916 -0.24173803 0.00000000)
		(2.32960894 -0.23722942 0.00000000)
		(2.34636872 -0.23177343 0.00000000)
		(2.36312849 -0.22539187 0.00000000)
		(2.37988827 -0.21811022 0.00000000)
		(2.39664804 -0.20995755 0.00000000)
		(2.41340782 -0.20096643 0.00000000)
		(2.43016760 -0.19117275 0.00000000)
		(2.44692737 -0.18061564 0.00000000)
		(2.46368715 -0.16933724 0.00000000)
		(2.48044693 -0.15738260 0.00000000)
		(2.49720670 -0.14479946 0.00000000)
		(2.51396648 -0.13163807 0.00000000)
		(2.53072626 -0.11795099 0.00000000)
		(2.54748603 -0.10379288 0.00000000)
		(2.56424581 -0.08922027 0.00000000)
		(2.58100559 -0.07429137 0.00000000)
		(2.59776536 -0.05906579 0.00000000)
		(2.61452514 -0.04360433 0.00000000)
		(2.63128492 -0.02796874 0.00000000)
		(2.64804469 -0.01222145 0.00000000)
		(2.66480447 0.00357464 0.00000000)
		(2.68156425 0.01935645 0.00000000)
		(2.69832402 0.03506097 0.00000000)
		(2.71508380 0.05062547 0.00000000)
		(2.73184358 0.06598780 0.00000000)
		(2.74860335 0.08108661 0.00000000)
		(2.76536313 0.09586160 0.00000000)
		(2.78212291 0.11025378 0.00000000)
		(2.79888268 0.12420566 0.00000000)
		(2.81564246 0.13766153 0.00000000)
		(2.83240223 0.15056766 0.00000000)
		(2.84916201 0.16287250 0.00000000)
		(2.86592179 0.17452691 0.00000000)
		(2.88268156 0.18548436 0.00000000)
		(2.89944134 0.19570109 0.00000000)
		(2.91620112 0.20513629 0.00000000)
		(2.93296089 0.21375228 0.00000000)
		(2.95166480 0.21862306 0.00000000)
		(2.97036872 0.22298112 0.00000000)
		(2.98907263 0.22682647 0.00000000)
		(3.00777654 0.23015911 0.00000000)
		(3.02648045 0.23297903 0.00000000)
		(3.04518436 0.23528624 0.00000000)
		(3.06388827 0.23708074 0.00000000)
		(3.08259218 0.23836252 0.00000000)
		(3.10129609 0.23913159 0.00000000)
		(3.12000000 0.23938795 0.00000000)
		(3.14000000 0.23938795 0.00000000)
		(3.16000000 0.23938795 0.00000000)
		(3.18000000 0.23938795 0.00000000)
		(3.20000000 0.23938795 0.00000000)
		(3.22000000 0.23938795 0.00000000)
		(3.24000000 0.23938795 0.00000000)
		(3.26000000 0.23938795 0.00000000)
		(3.28000000 0.23938795 0.00000000)
		(3.30000000 0.23938795 0.00000000)
		(3.32000000 0.23938795 0.00000000)
		(3.34000000 0.23938795 0.00000000)
		(3.36000000 0.23938795 0.00000000)
		(3.38000000 0.23938795 0.00000000)
		(3.40000000 0.23938795 0.00000000)
		(3.42000000 0.23938795 0.00000000)
		(3.44000000 0.23938795 0.00000000)
		(3.46000000 0.23938795 0.00000000)
		(3.48000000 0.23938795 0.00000000)
		(3.50000000 0.23938795 0.00000000)
		(3.52000000 0.23938795 0.00000000)
		(3.54000000 0.23938795 0.00000000)
		(3.56000000 0.23938795 0.00000000)
		(3.58000000 0.23938795 0.00000000)
		(3.60000000 0.23938795 0.00000000)
		(3.62000000 0.23938795 0.00000000)
		(3.64000000 0.23938795 0.00000000)
		(3.66000000 0.23938795 0.00000000)
		(3.68000000 0.23938795 0.00000000)
		(3.70000000 0.23938795 0.00000000)
		(3.72000000 0.23938795 0.00000000)
		(3.74000000 0.23938795 0.00000000)
		(3.76000000 0.23938795 0.00000000)
		(3.78000000 0.23938795 0.00000000)
		(3.80000000 0.23938795 0.00000000)
		(3.82000000 0.23938795 0.00000000)
		(3.84000000 0.23938795 0.00000000)
		(3.86000000 0.23938795 0.00000000)
		(3.88000000 0.23938795 0.00000000)
		(3.90000000 0.23938795 0.00000000)
		(3.92000000 0.23938795 0.00000000)
		(3.94000000 0.23938795 0.00000000)
		(3.96000000 0.23938795 0.00000000)
		(3.98000000 0.23938795 0.00000000)
		(4.00000000 0.23938795 0.00000000)
	)
	polyLine 4 5
	(
		(-1.00000000 0.14330144 0.10000000)
		(-0.98000000 0.14330144 0.10000000)
		(-0.96000000 0.14330144 0.10000000)
		(-0.94000000 0.14330144 0.10000000)
		(-0.92000000 0.14330144 0.10000000)
		(-0.90000000 0.14330144 0.10000000)
		(-0.88000000 0.14330144 0.10000000)
		(-0.86000000 0.14330144 0.10000000)
		(-0.84000000 0.14330144 0.10000000)
		(-0.82000000 0.14330144 0.10000000)
		(-0.80000000 0.14330144 0.10000000)
		(-0.78000000 0.14330144 0.10000000)
		(-0.76000000 0.14330144 0.10000000)
		(-0.74000000 0.14330144 0.10000000)
		(-0.72000000 0.14330144 0.10000000)
		(-0.70000000 0.14330144 0.10000000)
		(-0.68000000 0.14330144 0.10000000)
		(-0.66000000 0.14330144 0.10000000)
		(-0.64000000 0.14330144 0.10000000)
		(-0.62000000 0.14330144 0.10000000)
		(-0.60000000 0.14330144 0.10000000)
		(-0.58000000 0.14330144 0.10000000)
		(-0.56000000 0.14330144 0.10000000)
		(-0.54000000 0.14330144 0.10000000)
		(-0.52000000 0.14330144 0.10000000)
		(-0.50000000 0.14330144 0.10000000)
		(-0.48000000 0.14330144 0.10000000)
		(-0.46000000 0.14330144 0.10000000)
		(-0.44000000 0.14330144 0.10000000)
		(-0.42000000 0.14330144 0.10000000)
		(-0.40000000 0.14330144 0.10000000)
		(-0.38000000 0.14330144 0.10000000)
		(-0.36000000 0.14330144 0.10000000)
		(-0.34000000 0.14330144 0.10000000)
		(-0.32000000 0.14330144 0.10000000)
		(-0.30000000 0.14330144 0.10000000)
		(-0.28000000 0.14330144 0.10000000)
		(-0.26000000 0.14330144 0.10000000)
		(-0.24000000 0.14330144 0.10000000)
		(-0.22000000 0.14330144 0.10000000)
		(-0.20000000 0.14330144 0.10000000)
		(-0.18000000 0.14330144 0.10000000)
		(-0.16000000 0.14330144 0.10000000)
		(-0.14000000 0.14330144 0.10000000)
		(-0.12000000 0.14330144 0.10000000)
		(-0.10000000 0.14330144 0.10000000)
		(-0.08162011 0.14259382 0.10000000)
		(-0.06324022 0.14047095 0.10000000)
		(-0.04486034 0.13693285 0.10000000)
		(-0.02648045 0.13197950 0.10000000)
		(-0.00810056 0.12561091 0.10000000)
		(0.01027933 0.11782707 0.10000000)
		(0.02865922 0.10862799 0.10000000)
		(0.04703911 0.09801367 0.10000000)
		(0.06541899 0.08598411 0.10000000)
		(0.08379888 0.07253930 0.10000000)
		(0.10055866 0.05728322 0.10000000)
		(0.11731844 0.04179838 0.10000000)
		(0.13407821 0.02614662 0.10000000)
		(0.15083799 0.01039044 0.10000000)
		(0.16759777 -0.00540722 0.10000000)
		(0.18435754 -0.02118330 0.10000000)
		(0.20111732 -0.03687478 0.10000000)
		(0.21787709 -0.05241900 0.10000000)
		(0.23463687 -0.06775389 0.10000000)
		(0.25139665 -0.08281821 0.10000000)
		(0.26815642 -0.09755180 0.10000000)
		(0.28491620 -0.11189582 0.10000000)
		(0.30167598 -0.12579298 0.10000000)
		(0.31843575 -0.13918780 0.10000000)
		(0.33519553 -0.15202678 0.10000000)
		(0.35195531 -0.16425864 0.10000000)
		(0.36871508 -0.17583454 0.10000000)
		(0.38547486 -0.18670826 0.10000000)
		(0.40223464 -0.19683636 0.10000000)
		(0.41899441 -0.20617841 0.10000000)
		(0.43575419 -0.21469709 0.10000000)
		(0.45251397 -0.22235839 0.10000000)
		(0.46927374 -0.22913170 0.10000000)
		(0.48603352 -0.23498999 0.10000000)
		(0.50279330 -0.23990986 0.10000000)
		(0.51955307 -0.24387166 0.10000000)
		(0.53631285 -0.24685956 0.10000000)
		(0.55307263 -0.24886165 0.10000000)
		(0.56983240 -0.24986991 0.10000000)
		(0.58659218 -0.24988033 0.10000000)
		(0.60335196 -0.24889286 0.10000000)
		(0.62011173 -0.24691145 0.10000000)
		(0.63687151 -0.24394401 0.10000000)
		(0.65363128 -0.24000238 0.10000000)
		(0.67039106 -0.23510232 0.10000000)
		(0.68715084 -0.22926339 0.10000000)
		(0.70391061 -0.22250890 0.10000000)
		(0.72067039 -0.21486583 0.10000000)
		(0.73743017 -0.20636471 0.10000000)
		(0.75418994 -0.19703947 0.10000000)
		(0.77094972 -0.18692737 0.10000000)
		(0.78770950 -0.17606878 0.10000000)
		(0.80446927 -0.16450706 0.10000000)
		(0.82122905 -0.15228840 0.10000000)
		(0.83798883 -0.13946157 0.10000000)
		(0.85474860 -0.12607782 0.10000000)
		(0.87150838 -0.11219057 0.10000000)
		(0.88826816 -0.09785530 0.10000000)
		(0.90502793 -0.08312925 0.10000000)
		(0.92178771 -0.06807122 0.10000000)
		(0.93854749 -0.05274136 0.10000000)
		(0.95530726 -0.03720087 0.10000000)
		(0.97206704 -0.02151182 0.10000000)
		(0.98882682 -0.00573687 0.10000000)
		(1.00558659 0.01006099 0.10000000)
		(1.02234637 0.02581868 0.10000000)
		(1.03910615 0.04147326 0.10000000)
		(1.05586592 0.05696222 0.10000000)
		(1.07262570 0.07222370 0.10000000)
		(1.08938547 0.08719676 0.10000000)
		(1.10614525 0.10182160 0.10000000)
		(1.12290503 0.11603982 0.10000000)
		(1.13966480 0.12979464 0.10000000)
		(1.15642458 0.14303113 0.10000000)
		(1.17318436 0.15569644 0.10000000)
		(1.18994413 0.16773997 0.10000000)
		(1.20670391 0.17911365 0.10000000)
		(1.22346369 0.18977204 0.10000000)
		(1.24022346 0.19967258 0.10000000)
		(1.25698324 0.20877574 0.10000000)
		(1.27374302 0.21704516 0.10000000)
		(1.29050279 0.22444782 0.10000000)
		(1.30726257 0.23095416 0.10000000)
		(1.32402235 0.23653819 0.10000000)
		(1.34078212 0.24117762 0.10000000)
		(1.35754190 0.24485391 0.10000000)
		(1.37430168 0.24755239 0.10000000)
		(1.39106145 0.24926228 0.10000000)
		(1.40782123 0.24997675 0.10000000)
		(1.42458101 0.24969295 0.10000000)
		(1.44134078 0.24841201 0.10000000)
		(1.45810056 0.24613905 0.10000000)
		(1.47486034 0.24288314 0.10000000)
		(1.49162011 0.23865729 0.10000000)
		(1.50837989 0.23347837 0.10000000)
		(1.52513966 0.22736706 0.10000000)
		(1.54189944 0.22034777 0.10000000)
		(1.55865922 0.21244854 0.10000000)
		(1.57541899 0.20370089 0.10000000)
		(1.59217877 0.19413978 0.10000000)
		(1.60893855 0.18380338 0.10000000)
		(1.62569832 0.17273297 0.10000000)
		(1.64245810 0.16097275 0.10000000)
		(1.65921788 0.14856970 0.10000000)
		(1.67597765 0.13557334 0.10000000)
		(1.69273743 0.12203557 0.10000000)
		(1.70949721 0.10801046 0.10000000)
		(1.72625698 0.09355401 0.10000000)
		(1.74301676 0.07872396 0.10000000)
		(1.75977654 0.06357953 0.10000000)
		(1.77653631 0.04818120 0.10000000)
		(1.79329609 0.03259045 0.10000000)
		(1.81005587 0.01686956 0.10000000)
		(1.82681564 0.00108130 0.10000000)
		(1.84357542 -0.01471127 0.10000000)
		(1.86033520 -0.03044510 0.10000000)
		(1.87709497 -0.04605735 0.10000000)
		(1.89385475 -0.06148567 0.10000000)
		(1.91061453 -0.07666845 0.10000000)
		(1.92737430 -0.09154506 0.10000000)
		(1.94413408 -0.10605608 0.10000000)
		(1.96089385 -0.12014358 0.10000000)
		(1.97765363 -0.13375128 0.10000000)
		(1.99441341 -0.14682486 0.10000000)
		(2.01117318 -0.15931210 0.10000000)
		(2.02793296 -0.17116313 0.10000000)
		(2.04469274 -0.18233062 0.10000000)
		(2.06145251 -0.19276999 0.10000000)
		(2.07821229 -0.20243954 0.10000000)
		(2.09497207 -0.21130066 0.10000000)
		(2.11173184 -0.21931795 0.10000000)
		(2.12849162 -0.22645941 0.10000000)
		(2.14525140 -0.23269651 0.10000000)
		(2.16201117 -0.23800435 0.10000000)
		(2.17877095 -0.24236172 0.10000000)
		(2.19553073 -0.24575124 0.10000000)
		(2.21229050 -0.24815936 0.10000000)
		(2.22905028 -0.24957646 0.10000000)
		(2.24581006 -0.24999689 0.10000000)
		(2.26256983 -0.24941897 0.10000000)
		(2.27932961 -0.24784500 0.10000000)
		(2.29608939 -0.24528128 0.10000000)
		(2.31284916 -0.24173803 0.10000000)
		(2.32960894 -0.23722942 0.10000000)
		(2.34636872 -0.23177343 0.10000000)
		(2.36312849 -0.22539187 0.10000000)
		(2.37988827 -0.21811022 0.10000000)
		(2.39664804 -0.20995755 0.10000000)
		(2.41340782 -0.20096643 0.10000000)
		(2.43016760 -0.19117275 0.10000000)
		(2.44692737 -0.18061564 0.10000000)
		(2.46368715 -0.16933724 0.10000000)
		(2.48044693 -0.15738260 0.10000000)
		(2.49720670 -0.14479946 0.10000000)
		(2.51396648 -0.13163807 0.10000000)
		(2.53072626 -0.11795099 0.10000000)
		(2.54748603 -0.10379288 0.10000000)
		(2.56424581 -0.08922027 0.10000000)
		(2.58100559 -0.07429137 0.10000000)
		(2.59776536 -0.05906579 0.10000000)
		(2.61452514 -0.04360433 0.10000000)
		(2.63128492 -0.02796874 0.10000000)
		(2.64804469 -0.01222145 0.10000000)
		(2.66480447 0.00357464 0.10000000)
		(2.68156425 0.01935645 0.10000000)
		(2.69832402 0.03506097 0.10000000)
		(2.71508380 0.05062547 0.10000000)
		(2.73184358 0.06598780 0.10000000)
		(2.74860335 0.08108661 0.10000000)
		(2.76536313 0.09586160 0.10000000)
		(2.78212291 0.11025378 0.10000000)
		(2.79888268 0.12420566 0.10000000)
		(2.81564246 0.13766153 0.10000000)
		(2.83240223 0.15056766 0.10000000)
		(2.84916201 0.16287250 0.10000000)
		(2.86592179 0.17452691 0.10000000)
		(2.88268156 0.18548436 0.10000000)
		(2.89944134 0.19570109 0.10000000)
		(2.91620112 0.20513629 0.10000000)
		(2.93296089 0.21375228 0.10000000)
		(2.95166480 0.21862306 0.10000000)
		(2.97036872 0.22298112 0.10000000)
		(2.98907263 0.22682647 0.10000000)
		(3.00777654 0.23015911 0.10000000)
		(3.02648045 0.23297903 0.10000000)
		(3.04518436 0.23528624 0.10000000)
		(3.06388827 0.23708074 0.10000000)
		(3.08259218 0.23836252 0.10000000)
		(3.10129609 0.23913159 0.10000000)
		(3.12000000 0.23938795 0.10000000)
		(3.14000000 0.23938795 0.10000000)
		(3.16000000 0.23938795 0.10000000)
		(3.18000000 0.23938795 0.10000000)
		(3.20000000 0.23938795 0.10000000)
		(3.22000000 0.23938795 0.10000000)
		(3.24000000 0.23938795 0.10000000)
		(3.26000000 0.23938795 0.10000000)
		(3.28000000 0.23938795 0.10000000)
		(3.30000000 0.23938795 0.10000000)
		(3.32000000 0.23938795 0.10000000)
		(3.34000000 0.23938795 0.10000000)
		(3.36000000 0.23938795 0.10000000)
		(3.38000000 0.23938795 0.10000000)
		(3.40000000 0.23938795 0.10000000)
		(3.42000000 0.23938795 0.10000000)
		(3.44000000 0.23938795 0.10000000)
		(3.46000000 0.23938795 0.10000000)
		(3.48000000 0.23938795 0.10000000)
		(3.50000000 0.23938795 0.10000000)
		(3.52000000 0.23938795 0.10000000)
		(3.54000000 0.23938795 0.10000000)
		(3.56000000 0.23938795 0.10000000)
		(3.58000000 0.23938795 0.10000000)
		(3.60000000 0.23938795 0.10000000)
		(3.62000000 0.23938795 0.10000000)
		(3.64000000 0.23938795 0.10000000)
		(3.66000000 0.23938795 0.10000000)
		(3.68000000 0.23938795 0.10000000)
		(3.70000000 0.23938795 0.10000000)
		(3.72000000 0.23938795 0.10000000)
		(3.74000000 0.23938795 0.10000000)
		(3.76000000 0.23938795 0.10000000)
		(3.78000000 0.23938795 0.10000000)
		(3.80000000 0.23938795 0.10000000)
		(3.82000000 0.23938795 0.10000000)
		(3.84000000 0.23938795 0.10000000)
		(3.86000000 0.23938795 0.10000000)
		(3.88000000 0.23938795 0.10000000)
		(3.90000000 0.23938795 0.10000000)
		(3.92000000 0.23938795 0.10000000)
		(3.94000000 0.23938795 0.10000000)
		(3.96000000 0.23938795 0.10000000)
		(3.98000000 0.23938795 0.10000000)
		(4.00000000 0.23938795 0.10000000)
	)
	polyLine 3 2
	(
		(-1.00000000 0.64330144 0.00000000)
		(-0.98000000 0.64373280 0.00000000)
		(-0.96000000 0.64416416 0.00000000)
		(-0.94000000 0.64459552 0.00000000)
		(-0.92000000 0.64502688 0.00000000)
		(-0.90000000 0.64545824 0.00000000)
		(-0.88000000 0.64588960 0.00000000)
		(-0.86000000 0.64632096 0.00000000)
		(-0.84000000 0.64675232 0.00000000)
		(-0.82000000 0.64718368 0.00000000)
		(-0.80000000 0.64761504 0.00000000)
		(-0.78000000 0.64804640 0.00000000)
		(-0.76000000 0.64847776 0.00000000)
		(-0.74000000 0.64890912 0.00000000)
		(-0.72000000 0.64934048 0.00000000)
		(-0.70000000 0.64977184 0.00000000)
		(-0.68000000 0.65020320 0.00000000)
		(-0.66000000 0.65063457 0.00000000)
		(-0.64000000 0.65106593 0.00000000)
		(-0.62000000 0.65149729 0.00000000)
		(-0.60000000 0.65192865 0.00000000)
		(-0.58000000 0.65236001 0.00000000)
		(-0.56000000 0.65279137 0.00000000)
		(-0.54000000 0.65322273 0.00000000)
		(-0.52000000 0.65365409 0.00000000)
		(-0.50000000 0.65408545 0.00000000)
		(-0.48000000 0.65451681 0.00000000)
		(-0.46000000 0.65494817 0.00000000)
		(-0.44000000 0.65537953 0.00000000)
		(-0.42000000 0.65581089 0.00000000)
		(-0.40000000 0.65624225 0.00000000)
		(-0.38000000 0.65667361 0.00000000)
		(-0.36000000 0.65710497 0.00000000)
		(-0.34000000 0.65753633 0.00000000)
		(-0.32000000 0.65796769 0.00000000)
		(-0.30000000 0.65839905 0.00000000)
		(-0.28000000 0.65883041 0.00000000)
		(-0.26000000 0.65926177 0.00000000)
		(-0.24000000 0.65969313 0.00000000)
		(-0.22000000 0.66012449 0.00000000)
		(-0.20000000 0.66055585 0.00000000)
		(-0.18000000 0.66098721 0.00000000)
		(-0.16000000 0.66141857 0.00000000)
		(-0.14000000 0.66184993 0.00000000)
		(-0.12000000 0.66228129 0.00000000)
		(-0.10000000 0.66271265 0.00000000)
		(-0.08162011 0.66355776 0.00000000)
		(-0.06324022 0.66244898 0.00000000)
		(-0.04486034 0.65938631 0.00000000)
		(-0.02648045 0.65436975 0.00000000)
		(-0.00810056 0.64739930 0.00000000)
		(0.01027933 0.63847496 0.00000000)
		(0.02865922 0.62759673 0.00000000)
		(0.04703911 0.61476461 0.00000000)
		(0.06541899 0.59997859 0.00000000)
		(0.08379888 0.58323869 0.00000000)
		(0.10055866 0.56573237 0.00000000)
		(0.11731844 0.54796355 0.00000000)
		(0.13407821 0.53000319 0.00000000)
		(0.15083799 0.51192301 0.00000000)
		(0.16759777 0.49379522 0.00000000)
		(0.18435754 0.47569221 0.00000000)
		(0.20111732 0.45768627 0.00000000)
		(0.21787709 0.43984930 0.00000000)
		(0.23463687 0.42225255 0.00000000)
		(0.25139665 0.40496628 0.00000000)
		(0.26815642 0.38805952 0.00000000)
		(0.28491620 0.37159979 0.00000000)
		(0.30167598 0.35565282 0.00000000)
		(0.31843575 0.34028230 0.00000000)
		(0.33519553 0.32554960 0.00000000)
		(0.35195531 0.31151356 0.00000000)
		(0.36871508 0.29823024 0.00000000)
		(0.38547486 0.28575267 0.00000000)
		(0.40223464 0.27413070 0.00000000)
		(0.41899441 0.26341072 0.00000000)
		(0.43575419 0.25363555 0.00000000)
		(0.45251397 0.24484423 0.00000000)
		(0.46927374 0.23707186 0.00000000)
		(0.48603352 0.23034949 0.00000000)
		(0.50279330 0.22470395 0.00000000)
		(0.51955307 0.22015779 0.00000000)
		(0.53631285 0.21672918 0.00000000)
		(0.55307263 0.21443179 0.00000000)
		(0.56983240 0.21327481 0.00000000)
		(0.58659218 0.21326286 0.00000000)
		(0.60335196 0.21439598 0.00000000)
		(0.62011173 0.21666964 0.00000000)
		(0.63687151 0.22007478 0.00000000)
		(0.65363128 0.22459778 0.00000000)
		(0.67039106 0.23022059 0.00000000)
		(0.68715084 0.23692076 0.00000000)
		(0.70391061 0.24467152 0.00000000)
		(0.72067039 0.25344192 0.00000000)
		(0.73743017 0.26319694 0.00000000)
		(0.75418994 0.27389763 0.00000000)
		(0.77094972 0.28550125 0.00000000)
		(0.78770950 0.29796146 0.00000000)
		(0.80446927 0.31122850 0.00000000)
		(0.82122905 0.32524939 0.00000000)
		(0.83798883 0.33996814 0.00000000)
		(0.85474860 0.35532597 0.00000000)
		(0.87150838 0.37126156 0.00000000)
		(0.88826816 0.38771125 0.00000000)
		(0.90502793 0.40460937 0.00000000)
		(0.92178771 0.42188842 0.00000000)
		(0.93854749 0.43947941 0.00000000)
		(0.95530726 0.45731208 0.00000000)
		(0.97206704 0.47531523 0.00000000)
		(0.98882682 0.49341696 0.00000000)
		(1.00558659 0.51154497 0.00000000)
		(1.02234637 0.52962688 0.00000000)
		(1.03910615 0.54759048 0.00000000)
		(1.05586592 0.56536402 0.00000000)
		(1.07262570 0.58287654 0.00000000)
		(1.08938547 0.60005809 0.00000000)
		(1.10614525 0.61684007 0.00000000)
		(1.12290503 0.63315545 0.00000000)
		(1.13966480 0.64893907 0.00000000)
		(1.15642458 0.66412792 0.00000000)
		(1.17318436 0.67866133 0.00000000)
		(1.18994413 0.69248126 0.00000000)
		(1.20670391 0.70553253 0.00000000)
		(1.22346369 0.71776301 0.00000000)
		(1.24022346 0.72912386 0.00000000)
		(1.25698324 0.73956971 0.00000000)
		(1.27374302 0.74905886 0.00000000)
		(1.29050279 0.75755340 0.00000000)
		(1.30726257 0.76501940 0.00000000)
		(1.32402235 0.77142707 0.00000000)
		(1.34078212 0.77675080 0.00000000)
		(1.35754190 0.78096934 0.00000000)
		(1.37430168 0.78406584 0.00000000)
		(1.39106145 0.78602793 0.00000000)
		(1.40782123 0.78684779 0.00000000)
		(1.42458101 0.78652213 0.00000000)
		(1.44134078 0.78505225 0.00000000)
		(1.45810056 0.78244403 0.00000000)
		(1.47486034 0.77870788 0.00000000)
		(1.49162011 0.77385873 0.00000000)
		(1.50837989 0.76791593 0.00000000)
		(1.52513966 0.76090322 0.00000000)
		(1.54189944 0.75284860 0.00000000)
		(1.55865922 0.74378424 0.00000000)
		(1.57541899 0.73374634 0.00000000)
		(1.59217877 0.72277498 0.00000000)
		(1.60893855 0.71091398 0.00000000)
		(1.62569832 0.69821071 0.00000000)
		(1.64245810 0.68471589 0.00000000)
		(1.65921788 0.67048341 0.00000000)
		(1.67597765 0.65557011 0.00000000)
		(1.69273743 0.64003555 0.00000000)
		(1.70949721 0.62394177 0.00000000)
		(1.72625698 0.60735303 0.00000000)
		(1.74301676 0.59033558 0.00000000)
		(1.75977654 0.57295738 0.00000000)
		(1.77653631 0.55528782 0.00000000)
		(1.79329609 0.53739748 0.00000000)
		(1.81005587 0.51935779 0.00000000)
		(1.82681564 0.50124079 0.00000000)
		(1.84357542 0.48311884 0.00000000)
		(1.86033520 0.46506431 0.00000000)
		(1.87709497 0.44714929 0.00000000)
		(1.89385475 0.42944532 0.00000000)
		(1.91061453 0.41202312 0.00000000)
		(1.92737430 0.39495224 0.00000000)
		(1.94413408 0.37830087 0.00000000)
		(1.96089385 0.36213550 0.00000000)
		(1.97765363 0.34652069 0.00000000)
		(1.99441341 0.33151879 0.00000000)
		(2.01117318 0.31718971 0.00000000)
		(2.02793296 0.30359068 0.00000000)
		(2.04469274 0.29077600 0.00000000)
		(2.06145251 0.27879685 0.00000000)
		(2.07821229 0.26770106 0.00000000)
		(2.09497207 0.25753295 0.00000000)
		(2.11173184 0.24833312 0.00000000)
		(2.12849162 0.24013831 0.00000000)
		(2.14525140 0.23298125 0.00000000)
		(2.16201117 0.22689052 0.00000000)
		(2.17877095 0.22189044 0.00000000)
		(2.19553073 0.21800098 0.00000000)
		(2.21229050 0.21523767 0.00000000)
		(2.22905028 0.21361155 0.00000000)
		(2.24581006 0.21312910 0.00000000)
		(2.26256983 0.21379227 0.00000000)
		(2.27932961 0.21559839 0.00000000)
		(2.29608939 0.21854026 0.00000000)
		(2.31284916 0.22260613 0.00000000)
		(2.32960894 0.22777975 0.00000000)
		(2.34636872 0.23404048 0.00000000)
		(2.36312849 0.24136331 0.00000000)
		(2.37988827 0.24971899 0.00000000)
		(2.39664804 0.25907416 0.00000000)
		(2.41340782 0.26939145 0.00000000)
		(2.43016760 0.28062967 0.00000000)
		(2.44692737 0.29274394 0.00000000)
		(2.46368715 0.30568588 0.00000000)
		(2.48044693 0.31940380 0.00000000)
		(2.49720670 0.33384293 0.00000000)
		(2.51396648 0.34894559 0.00000000)
		(2.53072626 0.36465149 0.00000000)
		(2.54748603 0.38089789 0.00000000)