/*--------------------------------*- C++ -*----------------------------------*\\
/*--------------------------------*- C++ -*----------------------------------*\\
| =========                 |                                                 |
| \\\\      /  F ield         | OpenFOAM: The Open Source CFD Toolbox           |
|  \\\\    /   O peration     | Version:  v2012                                 |
|   \\\\  /    A nd           | Website:  www.openfoam.com                      |
|    \\\\/     M anipulation  |                                                 |
\\*---------------------------------------------------------------------------*/
FoamFile
{
    version     2.0;
    format      ascii;
    class       dictionary;
    object      blockMeshDict;
}
// * * * * * * * * * * * * * * * * * * * * * * * * * * * * * * * * * * * * * //

scale   0.01;

xmin -1;
xmax 5;
ymin 0;
ymax 0.5;
zmin 0;
zmax 0.1;

vertices
(
    (-1.00000000 0.19665406 0.00000000)
    (4.00000000 0.21052727 0.00000000)
    (4.00000000 0.71052727 0.00000000)
    (-1.00000000 0.69665406 0.00000000)
    (-1.00000000 0.19665406 0.10000000)
    (4.00000000 0.21052727 0.10000000)
    (4.00000000 0.71052727 0.10000000)
    (-1.00000000 0.69665406 0.10000000)
);

blocks
(
    hex (0 1 2 3 4 5 6 7) (200 20 1) simpleGrading (1 1 1)
);

edges
(
	polyLine 0 1
	(
		(-1.00000000 0.19665406 0.00000000)
		(-0.98000000 0.19665406 0.00000000)
		(-0.96000000 0.19665406 0.00000000)
		(-0.94000000 0.19665406 0.00000000)
		(-0.92000000 0.19665406 0.00000000)
		(-0.90000000 0.19665406 0.00000000)
		(-0.88000000 0.19665406 0.00000000)
		(-0.86000000 0.19665406 0.00000000)
		(-0.84000000 0.19665406 0.00000000)
		(-0.82000000 0.19665406 0.00000000)
		(-0.80000000 0.19665406 0.00000000)
		(-0.78000000 0.19665406 0.00000000)
		(-0.76000000 0.19665406 0.00000000)
		(-0.74000000 0.19665406 0.00000000)
		(-0.72000000 0.19665406 0.00000000)
		(-0.70000000 0.19665406 0.00000000)
		(-0.68000000 0.19665406 0.00000000)
		(-0.66000000 0.19665406 0.00000000)
		(-0.64000000 0.19665406 0.00000000)
		(-0.62000000 0.19665406 0.00000000)
		(-0.60000000 0.19665406 0.00000000)
		(-0.58000000 0.19665406 0.00000000)
		(-0.56000000 0.19665406 0.00000000)
		(-0.54000000 0.19665406 0.00000000)
		(-0.52000000 0.19665406 0.00000000)
		(-0.50000000 0.19665406 0.00000000)
		(-0.48000000 0.19665406 0.00000000)
		(-0.46000000 0.19665406 0.00000000)
		(-0.44000000 0.19665406 0.00000000)
		(-0.42000000 0.19665406 0.00000000)
		(-0.40000000 0.19665406 0.00000000)
		(-0.38000000 0.19665406 0.00000000)
		(-0.36000000 0.19665406 0.00000000)
		(-0.34000000 0.19665406 0.00000000)
		(-0.32000000 0.19665406 0.00000000)
		(-0.30000000 0.19665406 0.00000000)
		(-0.28000000 0.19665406 0.00000000)
		(-0.26000000 0.19665406 0.00000000)
		(-0.24000000 0.19665406 0.00000000)
		(-0.22000000 0.19665406 0.00000000)
		(-0.20000000 0.19665406 0.00000000)
		(-0.18000000 0.19665406 0.00000000)
		(-0.16000000 0.19665406 0.00000000)
		(-0.14000000 0.19665406 0.00000000)
		(-0.12000000 0.19665406 0.00000000)
		(-0.10000000 0.19665406 0.00000000)
		(-0.08162011 0.19600906 0.00000000)
		(-0.06324022 0.19407407 0.00000000)
		(-0.04486034 0.19084909 0.00000000)
		(-0.02648045 0.18633412 0.00000000)
		(-0.00810056 0.18052916 0.00000000)
		(0.01027933 0.17343420 0.00000000)
		(0.02865922 0.16504925 0.00000000)
		(0.04703911 0.15537431 0.00000000)
		(0.06541899 0.14440938 0.00000000)
		(0.08379888 0.13215446 0.00000000)
		(0.10055866 0.11706133 0.00000000)
		(0.11731844 0.10140026 0.00000000)
		(0.13407821 0.08524724 0.00000000)
		(0.15083799 0.06868064 0.00000000)
		(0.16759777 0.05178082 0.00000000)
		(0.18435754 0.03462978 0.00000000)
		(0.20111732 0.01731073 0.00000000)
		(0.21787709 -0.00009230 0.00000000)
		(0.23463687 -0.01749489 0.00000000)
		(0.25139665 -0.03481260 0.00000000)
		(0.26815642 -0.05196141 0.00000000)
		(0.28491620 -0.06885812 0.00000000)
		(0.30167598 -0.08542076 0.00000000)
		(0.31843575 -0.10156898 0.00000000)
		(0.33519553 -0.11722442 0.00000000)
		(0.35195531 -0.13231113 0.00000000)
		(0.36871508 -0.14675592 0.00000000)
		(0.38547486 -0.16048871 0.00000000)
		(0.40223464 -0.17344287 0.00000000)
		(0.41899441 -0.18555555 0.00000000)
		(0.43575419 -0.19676799 0.00000000)
		(0.45251397 -0.20702579 0.00000000)
		(0.46927374 -0.21627918 0.00000000)
		(0.48603352 -0.22448326 0.00000000)
		(0.50279330 -0.23159825 0.00000000)
		(0.51955307 -0.23758960 0.00000000)
		(0.53631285 -0.24242827 0.00000000)
		(0.55307263 -0.24609077 0.00000000)
		(0.56983240 -0.24855933 0.00000000)
		(0.58659218 -0.24982198 0.00000000)
		(0.60335196 -0.24987259 0.00000000)
		(0.62011173 -0.24871092 0.00000000)
		(0.63687151 -0.24634260 0.00000000)
		(0.65363128 -0.24277911 0.00000000)
		(0.67039106 -0.23803776 0.00000000)
		(0.68715084 -0.23214155 0.00000000)
		(0.70391061 -0.22511907 0.00000000)
		(0.72067039 -0.21700441 0.00000000)
		(0.73743017 -0.20783692 0.00000000)
		(0.75418994 -0.19766109 0.00000000)
		(0.77094972 -0.18652628 0.00000000)
		(0.78770950 -0.17448652 0.00000000)
		(0.80446927 -0.16160023 0.00000000)
		(0.82122905 -0.14792991 0.00000000)
		(0.83798883 -0.13354189 0.00000000)
		(0.85474860 -0.11850598 0.00000000)
		(0.87150838 -0.10289512 0.00000000)
		(0.88826816 -0.08678506 0.00000000)
		(0.90502793 -0.07025395 0.00000000)
		(0.92178771 -0.05338199 0.00000000)
		(0.93854749 -0.03625105 0.00000000)
		(0.95530726 -0.01894423 0.00000000)
		(0.97206704 -0.00154550 0.00000000)
		(0.98882682 0.01586073 0.00000000)
		(1.00558659 0.03319000 0.00000000)
		(1.02234637 0.05035826 0.00000000)
		(1.03910615 0.06728219 0.00000000)
		(1.05586592 0.08387970 0.00000000)
		(1.07262570 0.10007025 0.00000000)
		(1.08938547 0.11577531 0.00000000)
		(1.10614525 0.13091866 0.00000000)
		(1.12290503 0.14542685 0.00000000)
		(1.13966480 0.15922949 0.00000000)
		(1.15642458 0.17225961 0.00000000)
		(1.17318436 0.18445399 0.00000000)
		(1.18994413 0.19575347 0.00000000)
		(1.20670391 0.20610323 0.00000000)
		(1.22346369 0.21545306 0.00000000)
		(1.24022346 0.22375760 0.00000000)
		(1.25698324 0.23097655 0.00000000)
		(1.27374302 0.23707489 0.00000000)
		(1.29050279 0.24202304 0.00000000)
		(1.30726257 0.24579699 0.00000000)
		(1.32402235 0.24837842 0.00000000)
		(1.34078212 0.24975482 0.00000000)
		(1.35754190 0.24991951 0.00000000)
		(1.37430168 0.24887169 0.00000000)
		(1.39106145 0.24661643 0.00000000)
		(1.40782123 0.24316469 0.00000000)
		(1.42458101 0.23853322 0.00000000)
		(1.44134078 0.23274447 0.00000000)
		(1.45810056 0.22582653 0.00000000)
		(1.47486034 0.21781297 0.00000000)
		(1.49162011 0.20874267 0.00000000)
		(1.50837989 0.19865963 0.00000000)
		(1.52513966 0.18761278 0.00000000)
		(1.54189944 0.17565569 0.00000000)
		(1.55865922 0.16284640 0.00000000)
		(1.57541899 0.14924704 0.00000000)
		(1.59217877 0.13492359 0.00000000)
		(1.60893855 0.11994554 0.00000000)
		(1.62569832 0.10438557 0.00000000)
		(1.64245810 0.08831915 0.00000000)
		(1.65921788 0.07182425 0.00000000)
		(1.67597765 0.05498088 0.00000000)
		(1.69273743 0.03787077 0.00000000)
		(1.70949721 0.02057692 0.00000000)
		(1.72625698 0.00318324 0.00000000)
		(1.74301676 -0.01422588 0.00000000)
		(1.75977654 -0.03156598 0.00000000)
		(1.77653631 -0.04875294 0.00000000)
		(1.79329609 -0.06570337 0.00000000)
		(1.81005587 -0.08233503 0.00000000)
		(1.82681564 -0.09856723 0.00000000)
		(1.84357542 -0.11432123 0.00000000)
		(1.86033520 -0.12952058 0.00000000)
		(1.87709497 -0.14409155 0.00000000)
		(1.89385475 -0.15796344 0.00000000)
		(1.91061453 -0.17106895 0.00000000)
		(1.92737430 -0.18334451 0.00000000)
		(1.94413408 -0.19473055 0.00000000)
		(1.96089385 -0.20517183 0.00000000)
		(1.97765363 -0.21461770 0.00000000)
		(1.99441341 -0.22302233 0.00000000)
		(2.01117318 -0.23034494 0.00000000)
		(2.02793296 -0.23655000 0.00000000)
		(2.04469274 -0.24160742 0.00000000)
		(2.06145251 -0.24549265 0.00000000)
		(2.07821229 -0.24818685 0.00000000)
		(2.09497207 -0.24967695 0.00000000)
		(2.11173184 -0.24995570 0.00000000)
		(2.12849162 -0.24902177 0.00000000)
		(2.14525140 -0.24687969 0.00000000)
		(2.16201117 -0.24353984 0.00000000)
		(2.17877095 -0.23901843 0.00000000)
		(2.19553073 -0.23333739 0.00000000)
		(2.21229050 -0.22652430 0.00000000)
		(2.22905028 -0.21861219 0.00000000)
		(2.24581006 -0.20963947 0.00000000)
		(2.26256983 -0.19964965 0.00000000)
		(2.27932961 -0.18869122 0.00000000)
		(2.29608939 -0.17681733 0.00000000)
		(2.31284916 -0.16408558 0.00000000)
		(2.32960894 -0.15055776 0.00000000)
		(2.34636872 -0.13629950 0.00000000)
		(2.36312849 -0.12137996 0.00000000)
		(2.37988827 -0.10587153 0.00000000)
		(2.39664804 -0.08984945 0.00000000)
		(2.41340782 -0.07339146 0.00000000)
		(2.43016760 -0.05657741 0.00000000)
		(2.44692737 -0.03948886 0.00000000)
		(2.46368715 -0.02220873 0.00000000)
		(2.48044693 -0.00482085 0.00000000)
		(2.49720670 0.01259042 0.00000000)
		(2.51396648 0.02994061 0.00000000)
		(2.53072626 0.04714553 0.00000000)
		(2.54748603 0.06412173 0.00000000)
		(2.56424581 0.08078683 0.00000000)
		(2.58100559 0.09705998 0.00000000)
		(2.59776536 0.11286224 0.00000000)
		(2.61452514 0.12811693 0.00000000)
		(2.63128492 0.14275005 0.00000000)
		(2.64804469 0.15669061 0.00000000)
		(2.66480447 0.16987096 0.00000000)
		(2.68156425 0.18222716 0.00000000)
		(2.69832402 0.19369927 0.00000000)
		(2.71508380 0.20423162 0.00000000)
		(2.73184358 0.21377312 0.00000000)
		(2.74860335 0.22227748 0.00000000)
		(2.76536313 0.22970344 0.00000000)
		(2.78212291 0.23601496 0.00000000)
		(2.79888268 0.24118143 0.00000000)
		(2.81564246 0.24517779 0.00000000)
		(2.83240223 0.24798463 0.00000000)
		(2.84916201 0.24958835 0.00000000)
		(2.86592179 0.24998117 0.00000000)
		(2.88268156 0.24916118 0.00000000)
		(2.89944134 0.24713235 0.00000000)
		(2.91620112 0.24390453 0.00000000)
		(2.93296089 0.23949338 0.00000000)
		(2.95166480 0.23398982 0.00000000)
		(2.97036872 0.22906558 0.00000000)
		(2.98907263 0.22472066 0.00000000)
		(3.00777654 0.22095507 0.00000000)
		(3.02648045 0.21776879 0.00000000)
		(3.04518436 0.21516184 0.00000000)
		(3.06388827 0.21313422 0.00000000)
		(3.08259218 0.21168591 0.00000000)
		(3.10129609 0.21081693 0.00000000)
		(3.12000000 0.21052727 0.00000000)
		(3.14000000 0.21052727 0.00000000)
		(3.16000000 0.21052727 0.00000000)
		(3.18000000 0.21052727 0.00000000)
		(3.20000000 0.21052727 0.00000000)
		(3.22000000 0.21052727 0.00000000)
		(3.24000000 0.21052727 0.00000000)
		(3.26000000 0.21052727 0.00000000)
		(3.28000000 0.21052727 0.00000000)
		(3.30000000 0.21052727 0.00000000)
		(3.32000000 0.21052727 0.00000000)
		(3.34000000 0.21052727 0.00000000)
		(3.36000000 0.21052727 0.00000000)
		(3.38000000 0.21052727 0.00000000)
		(3.40000000 0.21052727 0.00000000)
		(3.42000000 0.21052727 0.00000000)
		(3.44000000 0.21052727 0.00000000)
		(3.46000000 0.21052727 0.00000000)
		(3.48000000 0.21052727 0.00000000)
		(3.50000000 0.21052727 0.00000000)
		(3.52000000 0.21052727 0.00000000)
		(3.54000000 0.21052727 0.00000000)
		(3.56000000 0.21052727 0.00000000)
		(3.58000000 0.21052727 0.00000000)
		(3.60000000 0.21052727 0.00000000)
		(3.62000000 0.21052727 0.00000000)
		(3.64000000 0.21052727 0.00000000)
		(3.66000000 0.21052727 0.00000000)
		(3.68000000 0.21052727 0.00000000)
		(3.70000000 0.21052727 0.00000000)
		(3.72000000 0.21052727 0.00000000)
		(3.74000000 0.21052727 0.00000000)
		(3.76000000 0.21052727 0.00000000)
		(3.78000000 0.21052727 0.00000000)
		(3.80000000 0.21052727 0.00000000)
		(3.82000000 0.21052727 0.00000000)
		(3.84000000 0.21052727 0.00000000)
		(3.86000000 0.21052727 0.00000000)
		(3.88000000 0.21052727 0.00000000)
		(3.90000000 0.21052727 0.00000000)
		(3.92000000 0.21052727 0.00000000)
		(3.94000000 0.21052727 0.00000000)
		(3.96000000 0.21052727 0.00000000)
		(3.98000000 0.21052727 0.00000000)
		(4.00000000 0.21052727 0.00000000)
	)
	polyLine 4 5
	(
		(-1.00000000 0.19665406 0.10000000)
		(-0.98000000 0.19665406 0.10000000)
		(-0.96000000 0.19665406 0.10000000)
		(-0.94000000 0.19665406 0.10000000)
		(-0.92000000 0.19665406 0.10000000)
		(-0.90000000 0.19665406 0.10000000)
		(-0.88000000 0.19665406 0.10000000)
		(-0.86000000 0.19665406 0.10000000)
		(-0.84000000 0.19665406 0.10000000)
		(-0.82000000 0.19665406 0.10000000)
		(-0.80000000 0.19665406 0.10000000)
		(-0.78000000 0.19665406 0.10000000)
		(-0.76000000 0.19665406 0.10000000)
		(-0.74000000 0.19665406 0.10000000)
		(-0.72000000 0.19665406 0.10000000)
		(-0.70000000 0.19665406 0.10000000)
		(-0.68000000 0.19665406 0.10000000)
		(-0.66000000 0.19665406 0.10000000)
		(-0.64000000 0.19665406 0.10000000)
		(-0.62000000 0.19665406 0.10000000)
		(-0.60000000 0.19665406 0.10000000)
		(-0.58000000 0.19665406 0.10000000)
		(-0.56000000 0.19665406 0.10000000)
		(-0.54000000 0.19665406 0.10000000)
		(-0.52000000 0.19665406 0.10000000)
		(-0.50000000 0.19665406 0.10000000)
		(-0.48000000 0.19665406 0.10000000)
		(-0.46000000 0.19665406 0.10000000)
		(-0.44000000 0.19665406 0.10000000)
		(-0.42000000 0.19665406 0.10000000)
		(-0.40000000 0.19665406 0.10000000)
		(-0.38000000 0.19665406 0.10000000)
		(-0.36000000 0.19665406 0.10000000)
		(-0.34000000 0.19665406 0.10000000)
		(-0.32000000 0.19665406 0.10000000)
		(-0.30000000 0.19665406 0.10000000)
		(-0.28000000 0.19665406 0.10000000)
		(-0.26000000 0.19665406 0.10000000)
		(-0.24000000 0.19665406 0.10000000)
		(-0.22000000 0.19665406 0.10000000)
		(-0.20000000 0.19665406 0.10000000)
		(-0.18000000 0.19665406 0.10000000)
		(-0.16000000 0.19665406 0.10000000)
		(-0.14000000 0.19665406 0.10000000)
		(-0.12000000 0.19665406 0.10000000)
		(-0.10000000 0.19665406 0.10000000)
		(-0.08162011 0.19600906 0.10000000)
		(-0.06324022 0.19407407 0.10000000)
		(-0.04486034 0.19084909 0.10000000)
		(-0.02648045 0.18633412 0.10000000)
		(-0.00810056 0.18052916 0.10000000)
		(0.01027933 0.17343420 0.10000000)
		(0.02865922 0.16504925 0.10000000)
		(0.04703911 0.15537431 0.10000000)
		(0.06541899 0.14440938 0.10000000)
		(0.08379888 0.13215446 0.10000000)
		(0.10055866 0.11706133 0.10000000)
		(0.11731844 0.10140026 0.10000000)
		(0.13407821 0.08524724 0.10000000)
		(0.15083799 0.06868064 0.10000000)
		(0.16759777 0.05178082 0.10000000)
		(0.18435754 0.03462978 0.10000000)
		(0.20111732 0.01731073 0.10000000)
		(0.21787709 -0.00009230 0.10000000)
		(0.23463687 -0.01749489 0.10000000)
		(0.25139665 -0.03481260 0.10000000)
		(0.26815642 -0.05196141 0.10000000)
		(0.28491620 -0.06885812 0.10000000)
		(0.30167598 -0.08542076 0.10000000)
		(0.31843575 -0.10156898 0.10000000)
		(0.33519553 -0.11722442 0.10000000)
		(0.35195531 -0.13231113 0.10000000)
		(0.36871508 -0.14675592 0.10000000)
		(0.38547486 -0.16048871 0.10000000)
		(0.40223464 -0.17344287 0.10000000)
		(0.41899441 -0.18555555 0.10000000)
		(0.43575419 -0.19676799 0.10000000)
		(0.45251397 -0.20702579 0.10000000)
		(0.46927374 -0.21627918 0.10000000)
		(0.48603352 -0.22448326 0.10000000)
		(0.50279330 -0.23159825 0.10000000)
		(0.51955307 -0.23758960 0.10000000)
		(0.53631285 -0.24242827 0.10000000)
		(0.55307263 -0.24609077 0.10000000)
		(0.56983240 -0.24855933 0.10000000)
		(0.58659218 -0.24982198 0.10000000)
		(0.60335196 -0.24987259 0.10000000)
		(0.62011173 -0.24871092 0.10000000)
		(0.63687151 -0.24634260 0.10000000)
		(0.65363128 -0.24277911 0.10000000)
		(0.67039106 -0.23803776 0.10000000)
		(0.68715084 -0.23214155 0.10000000)
		(0.70391061 -0.22511907 0.10000000)
		(0.72067039 -0.21700441 0.10000000)
		(0.73743017 -0.20783692 0.10000000)
		(0.75418994 -0.19766109 0.10000000)
		(0.77094972 -0.18652628 0.10000000)
		(0.78770950 -0.17448652 0.10000000)
		(0.80446927 -0.16160023 0.10000000)
		(0.82122905 -0.14792991 0.10000000)
		(0.83798883 -0.13354189 0.10000000)
		(0.85474860 -0.11850598 0.10000000)
		(0.87150838 -0.10289512 0.10000000)
		(0.88826816 -0.08678506 0.10000000)
		(0.90502793 -0.07025395 0.10000000)
		(0.92178771 -0.05338199 0.10000000)
		(0.93854749 -0.03625105 0.10000000)
		(0.95530726 -0.01894423 0.10000000)
		(0.97206704 -0.00154550 0.10000000)
		(0.98882682 0.01586073 0.10000000)
		(1.00558659 0.03319000 0.10000000)
		(1.02234637 0.05035826 0.10000000)
		(1.03910615 0.06728219 0.10000000)
		(1.05586592 0.08387970 0.10000000)
		(1.07262570 0.10007025 0.10000000)
		(1.08938547 0.11577531 0.10000000)
		(1.10614525 0.13091866 0.10000000)
		(1.12290503 0.14542685 0.10000000)
		(1.13966480 0.15922949 0.10000000)
		(1.15642458 0.17225961 0.10000000)
		(1.17318436 0.18445399 0.10000000)
		(1.18994413 0.19575347 0.10000000)
		(1.20670391 0.20610323 0.10000000)
		(1.22346369 0.21545306 0.10000000)
		(1.24022346 0.22375760 0.10000000)
		(1.25698324 0.23097655 0.10000000)
		(1.27374302 0.23707489 0.10000000)
		(1.29050279 0.24202304 0.10000000)
		(1.30726257 0.24579699 0.10000000)
		(1.32402235 0.24837842 0.10000000)
		(1.34078212 0.24975482 0.10000000)
		(1.35754190 0.24991951 0.10000000)
		(1.37430168 0.24887169 0.10000000)
		(1.39106145 0.24661643 0.10000000)
		(1.40782123 0.24316469 0.10000000)
		(1.42458101 0.23853322 0.10000000)
		(1.44134078 0.23274447 0.10000000)
		(1.45810056 0.22582653 0.10000000)
		(1.47486034 0.21781297 0.10000000)
		(1.49162011 0.20874267 0.10000000)
		(1.50837989 0.19865963 0.10000000)
		(1.52513966 0.18761278 0.10000000)
		(1.54189944 0.17565569 0.10000000)
		(1.55865922 0.16284640 0.10000000)
		(1.57541899 0.14924704 0.10000000)
		(1.59217877 0.13492359 0.10000000)
		(1.60893855 0.11994554 0.10000000)
		(1.62569832 0.10438557 0.10000000)
		(1.64245810 0.08831915 0.10000000)
		(1.65921788 0.07182425 0.10000000)
		(1.67597765 0.05498088 0.10000000)
		(1.69273743 0.03787077 0.10000000)
		(1.70949721 0.02057692 0.10000000)
		(1.72625698 0.00318324 0.10000000)
		(1.74301676 -0.01422588 0.10000000)
		(1.75977654 -0.03156598 0.10000000)
		(1.77653631 -0.04875294 0.10000000)
		(1.79329609 -0.06570337 0.10000000)
		(1.81005587 -0.08233503 0.10000000)
		(1.82681564 -0.09856723 0.10000000)
		(1.84357542 -0.11432123 0.10000000)
		(1.86033520 -0.12952058 0.10000000)
		(1.87709497 -0.14409155 0.10000000)
		(1.89385475 -0.15796344 0.10000000)
		(1.91061453 -0.17106895 0.10000000)
		(1.92737430 -0.18334451 0.10000000)
		(1.94413408 -0.19473055 0.10000000)
		(1.96089385 -0.20517183 0.10000000)
		(1.97765363 -0.21461770 0.10000000)
		(1.99441341 -0.22302233 0.10000000)
		(2.01117318 -0.23034494 0.10000000)
		(2.02793296 -0.23655000 0.10000000)
		(2.04469274 -0.24160742 0.10000000)
		(2.06145251 -0.24549265 0.10000000)
		(2.07821229 -0.24818685 0.10000000)
		(2.09497207 -0.24967695 0.10000000)
		(2.11173184 -0.24995570 0.10000000)
		(2.12849162 -0.24902177 0.10000000)
		(2.14525140 -0.24687969 0.10000000)
		(2.16201117 -0.24353984 0.10000000)
		(2.17877095 -0.23901843 0.10000000)
		(2.19553073 -0.23333739 0.10000000)
		(2.21229050 -0.22652430 0.10000000)
		(2.22905028 -0.21861219 0.10000000)
		(2.24581006 -0.20963947 0.10000000)
		(2.26256983 -0.19964965 0.10000000)
		(2.27932961 -0.18869122 0.10000000)
		(2.29608939 -0.17681733 0.10000000)
		(2.31284916 -0.16408558 0.10000000)
		(2.32960894 -0.15055776 0.10000000)
		(2.34636872 -0.13629950 0.10000000)
		(2.36312849 -0.12137996 0.10000000)
		(2.37988827 -0.10587153 0.10000000)
		(2.39664804 -0.08984945 0.10000000)
		(2.41340782 -0.07339146 0.10000000)
		(2.43016760 -0.05657741 0.10000000)
		(2.44692737 -0.03948886 0.10000000)
		(2.46368715 -0.02220873 0.10000000)
		(2.48044693 -0.00482085 0.10000000)
		(2.49720670 0.01259042 0.10000000)
		(2.51396648 0.02994061 0.10000000)
		(2.53072626 0.04714553 0.10000000)
		(2.54748603 0.06412173 0.10000000)
		(2.56424581 0.08078683 0.10000000)
		(2.58100559 0.09705998 0.10000000)
		(2.59776536 0.11286224 0.10000000)
		(2.61452514 0.12811693 0.10000000)
		(2.63128492 0.14275005 0.10000000)
		(2.64804469 0.15669061 0.10000000)
		(2.66480447 0.16987096 0.10000000)
		(2.68156425 0.18222716 0.10000000)
		(2.69832402 0.19369927 0.10000000)
		(2.71508380 0.20423162 0.10000000)
		(2.73184358 0.21377312 0.10000000)
		(2.74860335 0.22227748 0.10000000)
		(2.76536313 0.22970344 0.10000000)
		(2.78212291 0.23601496 0.10000000)
		(2.79888268 0.24118143 0.10000000)
		(2.81564246 0.24517779 0.10000000)
		(2.83240223 0.24798463 0.10000000)
		(2.84916201 0.24958835 0.10000000)
		(2.86592179 0.24998117 0.10000000)
		(2.88268156 0.24916118 0.10000000)
		(2.89944134 0.24713235 0.10000000)
		(2.91620112 0.24390453 0.10000000)
		(2.93296089 0.23949338 0.10000000)
		(2.95166480 0.23398982 0.10000000)
		(2.97036872 0.22906558 0.10000000)
		(2.98907263 0.22472066 0.10000000)
		(3.00777654 0.22095507 0.10000000)
		(3.02648045 0.21776879 0.10000000)
		(3.04518436 0.21516184 0.10000000)
		(3.06388827 0.21313422 0.10000000)
		(3.08259218 0.21168591 0.10000000)
		(3.10129609 0.21081693 0.10000000)
		(3.12000000 0.21052727 0.10000000)
		(3.14000000 0.21052727 0.10000000)
		(3.16000000 0.21052727 0.10000000)
		(3.18000000 0.21052727 0.10000000)
		(3.20000000 0.21052727 0.10000000)
		(3.22000000 0.21052727 0.10000000)
		(3.24000000 0.21052727 0.10000000)
		(3.26000000 0.21052727 0.10000000)
		(3.28000000 0.21052727 0.10000000)
		(3.30000000 0.21052727 0.10000000)
		(3.32000000 0.21052727 0.10000000)
		(3.34000000 0.21052727 0.10000000)
		(3.36000000 0.21052727 0.10000000)
		(3.38000000 0.21052727 0.10000000)
		(3.40000000 0.21052727 0.10000000)
		(3.42000000 0.21052727 0.10000000)
		(3.44000000 0.21052727 0.10000000)
		(3.46000000 0.21052727 0.10000000)
		(3.48000000 0.21052727 0.10000000)
		(3.50000000 0.21052727 0.10000000)
		(3.52000000 0.21052727 0.10000000)
		(3.54000000 0.21052727 0.10000000)
		(3.56000000 0.21052727 0.10000000)
		(3.58000000 0.21052727 0.10000000)
		(3.60000000 0.21052727 0.10000000)
		(3.62000000 0.21052727 0.10000000)
		(3.64000000 0.21052727 0.10000000)
		(3.66000000 0.21052727 0.10000000)
		(3.68000000 0.21052727 0.10000000)
		(3.70000000 0.21052727 0.10000000)
		(3.72000000 0.21052727 0.10000000)
		(3.74000000 0.21052727 0.10000000)
		(3.76000000 0.21052727 0.10000000)
		(3.78000000 0.21052727 0.10000000)
		(3.80000000 0.21052727 0.10000000)
		(3.82000000 0.21052727 0.10000000)
		(3.84000000 0.21052727 0.10000000)
		(3.86000000 0.21052727 0.10000000)
		(3.88000000 0.21052727 0.10000000)
		(3.90000000 0.21052727 0.10000000)
		(3.92000000 0.21052727 0.10000000)
		(3.94000000 0.21052727 0.10000000)
		(3.96000000 0.21052727 0.10000000)
		(3.98000000 0.21052727 0.10000000)
		(4.00000000 0.21052727 0.10000000)
	)
	polyLine 3 2
	(
		(-1.00000000 0.69665406 0.00000000)
		(-0.98000000 0.69562531 0.00000000)
		(-0.96000000 0.69459657 0.00000000)
		(-0.94000000 0.69356782 0.00000000)
		(-0.92000000 0.69253908 0.00000000)
		(-0.90000000 0.69151034 0.00000000)
		(-0.88000000 0.69048159 0.00000000)
		(-0.86000000 0.68945285 0.00000000)
		(-0.84000000 0.68842410 0.00000000)
		(-0.82000000 0.68739536 0.00000000)
		(-0.80000000 0.68636661 0.00000000)
		(-0.78000000 0.68533787 0.00000000)
		(-0.76000000 0.68430912 0.00000000)
		(-0.74000000 0.68328038 0.00000000)
		(-0.72000000 0.68225163 0.00000000)
		(-0.70000000 0.68122289 0.00000000)
		(-0.68000000 0.68019415 0.00000000)
		(-0.66000000 0.67916540 0.00000000)
		(-0.64000000 0.67813666 0.00000000)
		(-0.62000000 0.67710791 0.00000000)
		(-0.60000000 0.67607917 0.00000000)
		(-0.58000000 0.67505042 0.00000000)
		(-0.56000000 0.67402168 0.00000000)
		(-0.54000000 0.67299293 0.00000000)
		(-0.52000000 0.67196419 0.00000000)
		(-0.50000000 0.67093544 0.00000000)
		(-0.48000000 0.66990670 0.00000000)
		(-0.46000000 0.66887796 0.00000000)
		(-0.44000000 0.66784921 0.00000000)
		(-0.42000000 0.66682047 0.00000000)
		(-0.40000000 0.66579172 0.00000000)
		(-0.38000000 0.66476298 0.00000000)
		(-0.36000000 0.66373423 0.00000000)
		(-0.34000000 0.66270549 0.00000000)
		(-0.32000000 0.66167674 0.00000000)
		(-0.30000000 0.66064800 0.00000000)
		(-0.28000000 0.65961925 0.00000000)
		(-0.26000000 0.65859051 0.00000000)
		(-0.24000000 0.65756176 0.00000000)
		(-0.22000000 0.65653302 0.00000000)
		(-0.20000000 0.65550428 0.00000000)
		(-0.18000000 0.65447553 0.00000000)
		(-0.16000000 0.65344679 0.00000000)
		(-0.14000000 0.65241804 0.00000000)
		(-0.12000000 0.65138930 0.00000000)
		(-0.10000000 0.65036055 0.00000000)
		(-0.08162011 0.64996275 0.00000000)
		(-0.06324022 0.64849599 0.00000000)
		(-0.04486034 0.64596027 0.00000000)
		(-0.02648045 0.64235558 0.00000000)
		(-0.00810056 0.63768192 0.00000000)
		(0.01027933 0.63193931 0.00000000)
		(0.02865922 0.62512773 0.00000000)
		(0.04703911 0.61724718 0.00000000)
		(0.06541899 0.60829768 0.00000000)
		(0.08379888 0.59827921 0.00000000)
		(0.10055866 0.58705491 0.00000000)
		(0.11731844 0.57540826 0.00000000)
		(0.13407821 0.56339575 0.00000000)
		(0.15083799 0.55107568 0.00000000)
		(0.16759777 0.53850780 0.00000000)
		(0.18435754 0.52575310 0.00000000)
		(0.20111732 0.51287346 0.00000000)
		(0.21787709 0.49993136 0.00000000)
		(0.23463687 0.48698959 0.00000000)
		(0.25139665 0.47411094 0.00000000)
		(0.26815642 0.46135790 0.00000000)
		(0.28491620 0.44879233 0.00000000)
		(0.30167598 0.43647521 0.00000000)
		(0.31843575 0.42446628 0.00000000)
		(0.33519553 0.41282381 0.00000000)
		(0.35195531 0.40160428 0.00000000)
		(0.36871508 0.39086214 0.00000000)
		(0.38547486 0.38064948 0.00000000)
		(0.40223464 0.37101587 0.00000000)
		(0.41899441 0.36200804 0.00000000)
		(0.43575419 0.35366970 0.00000000)
		(0.45251397 0.34604129 0.00000000)
		(0.46927374 0.33915983 0.00000000)
		(0.48603352 0.33305870 0.00000000)
		(0.50279330 0.32776751 0.00000000)
		(0.51955307 0.32331192 0.00000000)
		(0.53631285 0.31971355 0.00000000)
		(0.55307263 0.31698986 0.00000000)
		(0.56983240 0.31515407 0.00000000)
		(0.58659218 0.31421508 0.00000000)
		(0.60335196 0.31417744 0.00000000)
		(0.62011173 0.31504134 0.00000000)
		(0.63687151 0.31680259 0.00000000)
		(0.65363128 0.31945264 0.00000000)
		(0.67039106 0.32297864 0.00000000)
		(0.68715084 0.32736347 0.00000000)
		(0.70391061 0.33258587 0.00000000)
		(0.72067039 0.33862050 0.00000000)
		(0.73743017 0.34543808 0.00000000)
		(0.75418994 0.35300553 0.00000000)
		(0.77094972 0.36128614 0.00000000)
		(0.78770950 0.37023974 0.00000000)
		(0.80446927 0.37982288 0.00000000)
		(0.82122905 0.38998908 0.00000000)
		(0.83798883 0.40068900 0.00000000)
		(0.85474860 0.41187075 0.00000000)
		(0.87150838 0.42348006 0.00000000)
		(0.88826816 0.43546062 0.00000000)
		(0.90502793 0.44775430 0.00000000)
		(0.92178771 0.46030145 0.00000000)
		(0.93854749 0.47304121 0.00000000)
		(0.95530726 0.48591176 0.00000000)
		(0.97206704 0.49885066 0.00000000)
		(0.98882682 0.51179513 0.00000000)
		(1.00558659 0.52468238 0.00000000)
		(1.02234637 0.53744989 0.00000000)
		(1.03910615 0.55003569 0.00000000)
		(1.05586592 0.56237875 0.00000000)
		(1.07262570 0.57441917 0.00000000)
		(1.08938547 0.58609853 0.00000000)
		(1.10614525 0.59736018 0.00000000)
		(1.12290503 0.60814948 0.00000000)
		(1.13966480 0.61841407 0.00000000)
		(1.15642458 0.62810417 0.00000000)
		(1.17318436 0.63717276 0.00000000)
		(1.18994413 0.64557583 0.00000000)
		(1.20670391 0.65327263 0.00000000)
		(1.22346369 0.66022581 0.00000000)
		(1.24022346 0.66640164 0.00000000)
		(1.25698324 0.67177015 0.00000000)
		(1.27374302 0.67630530 0.00000000)
		(1.29050279 0.67998509 0.00000000)
		(1.30726257 0.68279166 0.00000000)
		(1.32402235 0.68471139 0.00000000)
		(1.34078212 0.68573498 0.00000000)
		(1.35754190 0.68585745 0.00000000)
		(1.37430168 0.68507822 0.00000000)
		(1.39106145 0.68340106 0.00000000)
		(1.40782123 0.68083410 0.00000000)
		(1.42458101 0.67738982 0.00000000)
		(1.44134078 0.67308490 0.00000000)
		(1.45810056 0.66794024 0.00000000)
		(1.47486034 0.66198081 0.00000000)
		(1.49162011 0.65523551 0.00000000)
		(1.50837989 0.64773706 0.00000000)
		(1.52513966 0.63952185 0.00000000)
		(1.54189944 0.63062974 0.00000000)
		(1.55865922 0.62110386 0.00000000)
		(1.57541899 0.61099043 0.00000000)
		(1.59217877 0.60033852 0.00000000)
		(1.60893855 0.58919981 0.00000000)
		(1.62569832 0.57762833 0.00000000)
		(1.64245810 0.56568024 0.00000000)
		(1.65921788 0.55341348 0.00000000)
		(1.67597765 0.54088759 0.00000000)
		(1.69273743 0.52816333 0.00000000)
		(1.70949721 0.51530242 0.00000000)
		(1.72625698 0.50236728 0.00000000)
		(1.74301676 0.48942065 0.00000000)
		(1.75977654 0.47652535 0.00000000)
		(1.77653631 0.46374394 0.00000000)
		(1.79329609 0.45113843 0.00000000)
		(1.81005587 0.43876997 0.00000000)
		(1.82681564 0.42669858 0.00000000)
		(1.84357542 0.41498282 0.00000000)
		(1.86033520 0.40367953 0.00000000)
		(1.87709497 0.39284355 0.00000000)
		(1.89385475 0.38252745 0.00000000)
		(1.91061453 0.37278128 0.00000000)
		(1.92737430 0.36365233 0.00000000)
		(1.94413408 0.35518488 0.00000000)
		(1.96089385 0.34742002 0.00000000)
		(1.97765363 0.34039542 0.00000000)
		(1.99441341 0.33414516 0.00000000)
		(2.01117318 0.32869956 0.00000000)
		(2.02793296 0.32408504 0.00000000)
		(2.04469274 0.32032399 0.00000000)
		(2.06145251 0.31743466 0.00000000)
		(2.07821229 0.31543107 0.00000000)
		(2.09497207 0.31432293 0.00000000)
		(2.11173184 0.31411563 0.00000000)
		(2.12849162 0.31481017 0.00000000)
		(2.14525140 0.31640317 0.00000000)
		(2.16201117 0.31888691 0.00000000)
		(2.17877095 0.32224935 0.00000000)
		(2.19553073 0.32647416 0.00000000)
		(2.21229050 0.33154085 0.00000000)
		(2.22905028 0.33742484 0.00000000)
		(2.24581006 0.34409758 0.00000000)
		(2.26256983 0.35152669 0.00000000)
		(2.27932961 0.35967615 0.00000000)
		(2.29608939 0.36850639 0.00000000)
		(2.31284916 0.37797460 0.00000000)
		(2.32960894 0.38803482 0.00000000)
		(2.34636872 0.39863826 0.00000000)
		(2.36312849 0.40973346 0.00000000)
		(2.37988827 0.42126660 0.00000000)
		(2.39664804 0.43318173 0.00000000)
		(2.41340782 0.44542103 0.00000000)
		(2.43016760 0.45792512 0.00000000)
		(2.44692737 0.47063335 0.00000000)
		(2.46368715 0.48348405 0.00000000)
		(2.48044693 0.49641489 0.00000000)
		(2.49720670 0.50936311 0.00000000)
		(2.51396648 0.52226591 0.00000000)
		(2.53072626 0.53506068 0.00000000)
		(2.54748603 0.54768536 0.00000000)
		(2.56424581 0.56007868 0.00000000)