/*--------------------------------*- C++ -*----------------------------------*\\
/*--------------------------------*- C++ -*----------------------------------*\\
| =========                 |                                                 |
| \\\\      /  F ield         | OpenFOAM: The Open Source CFD Toolbox           |
|  \\\\    /   O peration     | Version:  v2012                                 |
|   \\\\  /    A nd           | Website:  www.openfoam.com                      |
|    \\\\/     M anipulation  |                                                 |
\\*---------------------------------------------------------------------------*/
FoamFile
{
    version     2.0;
    format      ascii;
    class       dictionary;
    object      blockMeshDict;
}
// * * * * * * * * * * * * * * * * * * * * * * * * * * * * * * * * * * * * * //

scale   0.01;

xmin -1;
xmax 5;
ymin 0;
ymax 0.5;
zmin 0;
zmax 0.1;

vertices
(
    (-1.00000000 -0.24999948 0.00000000)
    (4.00000000 0.17750369 0.00000000)
    (4.00000000 0.67750369 0.00000000)
    (-1.00000000 0.25000052 0.00000000)
    (-1.00000000 -0.24999948 0.10000000)
    (4.00000000 0.17750369 0.10000000)
    (4.00000000 0.67750369 0.10000000)
    (-1.00000000 0.25000052 0.10000000)
);

blocks
(
    hex (0 1 2 3 4 5 6 7) (200 20 1) simpleGrading (1 1 1)
);

edges
(
	polyLine 0 1
	(
		(-1.00000000 -0.24999948 0.00000000)
		(-0.98000000 -0.24999948 0.00000000)
		(-0.96000000 -0.24999948 0.00000000)
		(-0.94000000 -0.24999948 0.00000000)
		(-0.92000000 -0.24999948 0.00000000)
		(-0.90000000 -0.24999948 0.00000000)
		(-0.88000000 -0.24999948 0.00000000)
		(-0.86000000 -0.24999948 0.00000000)
		(-0.84000000 -0.24999948 0.00000000)
		(-0.82000000 -0.24999948 0.00000000)
		(-0.80000000 -0.24999948 0.00000000)
		(-0.78000000 -0.24999948 0.00000000)
		(-0.76000000 -0.24999948 0.00000000)
		(-0.74000000 -0.24999948 0.00000000)
		(-0.72000000 -0.24999948 0.00000000)
		(-0.70000000 -0.24999948 0.00000000)
		(-0.68000000 -0.24999948 0.00000000)
		(-0.66000000 -0.24999948 0.00000000)
		(-0.64000000 -0.24999948 0.00000000)
		(-0.62000000 -0.24999948 0.00000000)
		(-0.60000000 -0.24999948 0.00000000)
		(-0.58000000 -0.24999948 0.00000000)
		(-0.56000000 -0.24999948 0.00000000)
		(-0.54000000 -0.24999948 0.00000000)
		(-0.52000000 -0.24999948 0.00000000)
		(-0.50000000 -0.24999948 0.00000000)
		(-0.48000000 -0.24999948 0.00000000)
		(-0.46000000 -0.24999948 0.00000000)
		(-0.44000000 -0.24999948 0.00000000)
		(-0.42000000 -0.24999948 0.00000000)
		(-0.40000000 -0.24999948 0.00000000)
		(-0.38000000 -0.24999948 0.00000000)
		(-0.36000000 -0.24999948 0.00000000)
		(-0.34000000 -0.24999948 0.00000000)
		(-0.32000000 -0.24999948 0.00000000)
		(-0.30000000 -0.24999948 0.00000000)
		(-0.28000000 -0.24999948 0.00000000)
		(-0.26000000 -0.24999948 0.00000000)
		(-0.24000000 -0.24999948 0.00000000)
		(-0.22000000 -0.24999948 0.00000000)
		(-0.20000000 -0.24999948 0.00000000)
		(-0.18000000 -0.24999948 0.00000000)
		(-0.16000000 -0.24999948 0.00000000)
		(-0.14000000 -0.24999948 0.00000000)
		(-0.12000000 -0.24999948 0.00000000)
		(-0.10000000 -0.24999948 0.00000000)
		(-0.08162011 -0.24978330 0.00000000)
		(-0.06324022 -0.24913475 0.00000000)
		(-0.04486034 -0.24805384 0.00000000)
		(-0.02648045 -0.24654057 0.00000000)
		(-0.00810056 -0.24459493 0.00000000)
		(0.01027933 -0.24221693 0.00000000)
		(0.02865922 -0.23940656 0.00000000)
		(0.04703911 -0.23616383 0.00000000)
		(0.06541899 -0.23248874 0.00000000)
		(0.08379888 -0.22838128 0.00000000)
		(0.10055866 -0.21911855 0.00000000)
		(0.11731844 -0.20833343 0.00000000)
		(0.13407821 -0.19610083 0.00000000)
		(0.15083799 -0.18250575 0.00000000)
		(0.16759777 -0.16764265 0.00000000)
		(0.18435754 -0.15161480 0.00000000)
		(0.20111732 -0.13453355 0.00000000)
		(0.21787709 -0.11651758 0.00000000)
		(0.23463687 -0.09769206 0.00000000)
		(0.25139665 -0.07818779 0.00000000)
		(0.26815642 -0.05814029 0.00000000)
		(0.28491620 -0.03768884 0.00000000)
		(0.30167598 -0.01697553 0.00000000)
		(0.31843575 0.00385573 0.00000000)
		(0.33519553 0.02466019 0.00000000)
		(0.35195531 0.04529332 0.00000000)
		(0.36871508 0.06561176 0.00000000)
		(0.38547486 0.08547434 0.00000000)
		(0.40223464 0.10474305 0.00000000)
		(0.41899441 0.12328403 0.00000000)
		(0.43575419 0.14096844 0.00000000)
		(0.45251397 0.15767343 0.00000000)
		(0.46927374 0.17328293 0.00000000)
		(0.48603352 0.18768848 0.00000000)
		(0.50279330 0.20079001 0.00000000)
		(0.51955307 0.21249647 0.00000000)
		(0.53631285 0.22272654 0.00000000)
		(0.55307263 0.23140914 0.00000000)
		(0.56983240 0.23848394 0.00000000)
		(0.58659218 0.24390179 0.00000000)
		(0.60335196 0.24762505 0.00000000)
		(0.62011173 0.24962785 0.00000000)
		(0.63687151 0.24989627 0.00000000)
		(0.65363128 0.24842845 0.00000000)
		(0.67039106 0.24523459 0.00000000)
		(0.68715084 0.24033687 0.00000000)
		(0.70391061 0.23376933 0.00000000)
		(0.72067039 0.22557759 0.00000000)
		(0.73743017 0.21581857 0.00000000)
		(0.75418994 0.20456008 0.00000000)
		(0.77094972 0.19188034 0.00000000)
		(0.78770950 0.17786744 0.00000000)
		(0.80446927 0.16261874 0.00000000)
		(0.82122905 0.14624020 0.00000000)
		(0.83798883 0.12884560 0.00000000)
		(0.85474860 0.11055579 0.00000000)
		(0.87150838 0.09149787 0.00000000)
		(0.88826816 0.07180423 0.00000000)
		(0.90502793 0.05161170 0.00000000)
		(0.92178771 0.03106059 0.00000000)
		(0.93854749 0.01029367 0.00000000)
		(0.95530726 -0.01054477 0.00000000)
		(0.97206704 -0.03130995 0.00000000)
		(0.98882682 -0.05185759 0.00000000)
		(1.00558659 -0.07204492 0.00000000)
		(1.02234637 -0.09173171 0.00000000)
		(1.03910615 -0.11078115 0.00000000)
		(1.05586592 -0.12906090 0.00000000)
		(1.07262570 -0.14644396 0.00000000)
		(1.08938547 -0.16280955 0.00000000)
		(1.10614525 -0.17804396 0.00000000)
		(1.12290503 -0.19204135 0.00000000)
		(1.13966480 -0.20470446 0.00000000)
		(1.15642458 -0.21594532 0.00000000)
		(1.17318436 -0.22568582 0.00000000)
		(1.18994413 -0.23385829 0.00000000)
		(1.20670391 -0.24040595 0.00000000)
		(1.22346369 -0.24528330 0.00000000)
		(1.24022346 -0.24845646 0.00000000)
		(1.25698324 -0.24990339 0.00000000)
		(1.27374302 -0.24961402 0.00000000)
		(1.29050279 -0.24759037 0.00000000)
		(1.30726257 -0.24384650 0.00000000)
		(1.32402235 -0.23840842 0.00000000)
		(1.34078212 -0.23131392 0.00000000)
		(1.35754190 -0.22261228 0.00000000)
		(1.37430168 -0.21236396 0.00000000)
		(1.39106145 -0.20064018 0.00000000)
		(1.40782123 -0.18752237 0.00000000)
		(1.42458101 -0.17310169 0.00000000)
		(1.44134078 -0.15747832 0.00000000)
		(1.45810056 -0.14076081 0.00000000)
		(1.47486034 -0.12306533 0.00000000)
		(1.49162011 -0.10451480 0.00000000)
		(1.50837989 -0.08523812 0.00000000)
		(1.52513966 -0.06536921 0.00000000)
		(1.54189944 -0.04504613 0.00000000)
		(1.55865922 -0.02441008 0.00000000)
		(1.57541899 -0.00360443 0.00000000)
		(1.59217877 0.01722626 0.00000000)
		(1.60893855 0.03793727 0.00000000)
		(1.62569832 0.05838469 0.00000000)
		(1.64245810 0.07842647 0.00000000)
		(1.65921788 0.09792335 0.00000000)
		(1.67597765 0.11673988 0.00000000)
		(1.69273743 0.13474531 0.00000000)
		(1.70949721 0.15181455 0.00000000)
		(1.72625698 0.16782901 0.00000000)
		(1.74301676 0.18267742 0.00000000)
		(1.75977654 0.19625661 0.00000000)
		(1.77653631 0.20847224 0.00000000)
		(1.79329609 0.21923944 0.00000000)
		(1.81005587 0.22848340 0.00000000)
		(1.82681564 0.23613988 0.00000000)
		(1.84357542 0.24215570 0.00000000)
		(1.86033520 0.24648906 0.00000000)
		(1.87709497 0.24910985 0.00000000)
		(1.89385475 0.24999987 0.00000000)
		(1.91061453 0.24915292 0.00000000)
		(1.92737430 0.24657489 0.00000000)
		(1.94413408 0.24228370 0.00000000)
		(1.96089385 0.23630916 0.00000000)
		(1.97765363 0.22869278 0.00000000)
		(1.99441341 0.21948747 0.00000000)
		(2.01117318 0.20875720 0.00000000)
		(2.02793296 0.19657651 0.00000000)
		(2.04469274 0.18303004 0.00000000)
		(2.06145251 0.16821191 0.00000000)
		(2.07821229 0.15222506 0.00000000)
		(2.09497207 0.13518058 0.00000000)
		(2.11173184 0.11719688 0.00000000)
		(2.12849162 0.09839892 0.00000000)
		(2.14525140 0.07891729 0.00000000)
		(2.16201117 0.05888736 0.00000000)
		(2.17877095 0.03844829 0.00000000)
		(2.19553073 0.01774209 0.00000000)
		(2.21229050 -0.00308739 0.00000000)
		(2.22905028 -0.02389541 0.00000000)
		(2.24581006 -0.04453741 0.00000000)
		(2.26256983 -0.06486997 0.00000000)
		(2.27932961 -0.08475183 0.00000000)
		(2.29608939 -0.10404484 0.00000000)
		(2.31284916 -0.12261496 0.00000000)
		(2.32960894 -0.14033317 0.00000000)
		(2.34636872 -0.15707637 0.00000000)
		(2.36312849 -0.17272823 0.00000000)
		(2.37988827 -0.18718000 0.00000000)
		(2.39664804 -0.20033126 0.00000000)
		(2.41340782 -0.21209066 0.00000000)
		(2.43016760 -0.22237648 0.00000000)
		(2.44692737 -0.23111727 0.00000000)
		(2.46368715 -0.23825228 0.00000000)
		(2.48044693 -0.24373196 0.00000000)
		(2.49720670 -0.24751822 0.00000000)
		(2.51396648 -0.24958476 0.00000000)
		(2.53072626 -0.24991723 0.00000000)
		(2.54748603 -0.24851330 0.00000000)
		(2.56424581 -0.24538275 0.00000000)
		(2.58100559 -0.24054731 0.00000000)
		(2.59776536 -0.23404058 0.00000000)
		(2.61452514 -0.22590778 0.00000000)
		(2.63128492 -0.21620540 0.00000000)
		(2.64804469 -0.20500086 0.00000000)
		(2.66480447 -0.19237200 0.00000000)
		(2.68156425 -0.17840658 0.00000000)
		(2.69832402 -0.16320161 0.00000000)
		(2.71508380 -0.14686274 0.00000000)
		(2.73184358 -0.12950349 0.00000000)
		(2.74860335 -0.11124447 0.00000000)
		(2.76536313 -0.09221254 0.00000000)
		(2.78212291 -0.07253993 0.00000000)
		(2.79888268 -0.05236332 0.00000000)
		(2.81564246 -0.03182290 0.00000000)
		(2.83240223 -0.01106138 0.00000000)
		(2.84916201 0.00977699 0.00000000)
		(2.86592179 0.03054743 0.00000000)
		(2.88268156 0.05110564 0.00000000)
		(2.89944134 0.07130877 0.00000000)
		(2.91620112 0.09101646 0.00000000)
		(2.93296089 0.11009178 0.00000000)
		(2.95166480 0.12290004 0.00000000)
		(2.97036872 0.13436006 0.00000000)
		(2.98907263 0.14447185 0.00000000)
		(3.00777654 0.15323540 0.00000000)
		(3.02648045 0.16065071 0.00000000)
		(3.04518436 0.16671778 0.00000000)
		(3.06388827 0.17143662 0.00000000)
		(3.08259218 0.17480721 0.00000000)
		(3.10129609 0.17682957 0.00000000)
		(3.12000000 0.17750369 0.00000000)
		(3.14000000 0.17750369 0.00000000)
		(3.16000000 0.17750369 0.00000000)
		(3.18000000 0.17750369 0.00000000)
		(3.20000000 0.17750369 0.00000000)
		(3.22000000 0.17750369 0.00000000)
		(3.24000000 0.17750369 0.00000000)
		(3.26000000 0.17750369 0.00000000)
		(3.28000000 0.17750369 0.00000000)
		(3.30000000 0.17750369 0.00000000)
		(3.32000000 0.17750369 0.00000000)
		(3.34000000 0.17750369 0.00000000)
		(3.36000000 0.17750369 0.00000000)
		(3.38000000 0.17750369 0.00000000)
		(3.40000000 0.17750369 0.00000000)
		(3.42000000 0.17750369 0.00000000)
		(3.44000000 0.17750369 0.00000000)
		(3.46000000 0.17750369 0.00000000)
		(3.48000000 0.17750369 0.00000000)
		(3.50000000 0.17750369 0.00000000)
		(3.52000000 0.17750369 0.00000000)
		(3.54000000 0.17750369 0.00000000)
		(3.56000000 0.17750369 0.00000000)
		(3.58000000 0.17750369 0.00000000)
		(3.60000000 0.17750369 0.00000000)
		(3.62000000 0.17750369 0.00000000)
		(3.64000000 0.17750369 0.00000000)
		(3.66000000 0.17750369 0.00000000)
		(3.68000000 0.17750369 0.00000000)
		(3.70000000 0.17750369 0.00000000)
		(3.72000000 0.17750369 0.00000000)
		(3.74000000 0.17750369 0.00000000)
		(3.76000000 0.17750369 0.00000000)
		(3.78000000 0.17750369 0.00000000)
		(3.80000000 0.17750369 0.00000000)
		(3.82000000 0.17750369 0.00000000)
		(3.84000000 0.17750369 0.00000000)
		(3.86000000 0.17750369 0.00000000)
		(3.88000000 0.17750369 0.00000000)
		(3.90000000 0.17750369 0.00000000)
		(3.92000000 0.17750369 0.00000000)
		(3.94000000 0.17750369 0.00000000)
		(3.96000000 0.17750369 0.00000000)
		(3.98000000 0.17750369 0.00000000)
		(4.00000000 0.17750369 0.00000000)
	)
	polyLine 4 5
	(
		(-1.00000000 -0.24999948 0.10000000)
		(-0.98000000 -0.24999948 0.10000000)
		(-0.96000000 -0.24999948 0.10000000)
		(-0.94000000 -0.24999948 0.10000000)
		(-0.92000000 -0.24999948 0.10000000)
		(-0.90000000 -0.24999948 0.10000000)
		(-0.88000000 -0.24999948 0.10000000)
		(-0.86000000 -0.24999948 0.10000000)
		(-0.84000000 -0.24999948 0.10000000)
		(-0.82000000 -0.24999948 0.10000000)
		(-0.80000000 -0.24999948 0.10000000)
		(-0.78000000 -0.24999948 0.10000000)
		(-0.76000000 -0.24999948 0.10000000)
		(-0.74000000 -0.24999948 0.10000000)
		(-0.72000000 -0.24999948 0.10000000)
		(-0.70000000 -0.24999948 0.10000000)
		(-0.68000000 -0.24999948 0.10000000)
		(-0.66000000 -0.24999948 0.10000000)
		(-0.64000000 -0.24999948 0.10000000)
		(-0.62000000 -0.24999948 0.10000000)
		(-0.60000000 -0.24999948 0.10000000)
		(-0.58000000 -0.24999948 0.10000000)
		(-0.56000000 -0.24999948 0.10000000)
		(-0.54000000 -0.24999948 0.10000000)
		(-0.52000000 -0.24999948 0.10000000)
		(-0.50000000 -0.24999948 0.10000000)
		(-0.48000000 -0.24999948 0.10000000)
		(-0.46000000 -0.24999948 0.10000000)
		(-0.44000000 -0.24999948 0.10000000)
		(-0.42000000 -0.24999948 0.10000000)
		(-0.40000000 -0.24999948 0.10000000)
		(-0.38000000 -0.24999948 0.10000000)
		(-0.36000000 -0.24999948 0.10000000)
		(-0.34000000 -0.24999948 0.10000000)
		(-0.32000000 -0.24999948 0.10000000)
		(-0.30000000 -0.24999948 0.10000000)
		(-0.28000000 -0.24999948 0.10000000)
		(-0.26000000 -0.24999948 0.10000000)
		(-0.24000000 -0.24999948 0.10000000)
		(-0.22000000 -0.24999948 0.10000000)
		(-0.20000000 -0.24999948 0.10000000)
		(-0.18000000 -0.24999948 0.10000000)
		(-0.16000000 -0.24999948 0.10000000)
		(-0.14000000 -0.24999948 0.10000000)
		(-0.12000000 -0.24999948 0.10000000)
		(-0.10000000 -0.24999948 0.10000000)
		(-0.08162011 -0.24978330 0.10000000)
		(-0.06324022 -0.24913475 0.10000000)
		(-0.04486034 -0.24805384 0.10000000)
		(-0.02648045 -0.24654057 0.10000000)
		(-0.00810056 -0.24459493 0.10000000)
		(0.01027933 -0.24221693 0.10000000)
		(0.02865922 -0.23940656 0.10000000)
		(0.04703911 -0.23616383 0.10000000)
		(0.06541899 -0.23248874 0.10000000)
		(0.08379888 -0.22838128 0.10000000)
		(0.10055866 -0.21911855 0.10000000)
		(0.11731844 -0.20833343 0.10000000)
		(0.13407821 -0.19610083 0.10000000)
		(0.15083799 -0.18250575 0.10000000)
		(0.16759777 -0.16764265 0.10000000)
		(0.18435754 -0.15161480 0.10000000)
		(0.20111732 -0.13453355 0.10000000)
		(0.21787709 -0.11651758 0.10000000)
		(0.23463687 -0.09769206 0.10000000)
		(0.25139665 -0.07818779 0.10000000)
		(0.26815642 -0.05814029 0.10000000)
		(0.28491620 -0.03768884 0.10000000)
		(0.30167598 -0.01697553 0.10000000)
		(0.31843575 0.00385573 0.10000000)
		(0.33519553 0.02466019 0.10000000)
		(0.35195531 0.04529332 0.10000000)
		(0.36871508 0.06561176 0.10000000)
		(0.38547486 0.08547434 0.10000000)
		(0.40223464 0.10474305 0.10000000)
		(0.41899441 0.12328403 0.10000000)
		(0.43575419 0.14096844 0.10000000)
		(0.45251397 0.15767343 0.10000000)
		(0.46927374 0.17328293 0.10000000)
		(0.48603352 0.18768848 0.10000000)
		(0.50279330 0.20079001 0.10000000)
		(0.51955307 0.21249647 0.10000000)
		(0.53631285 0.22272654 0.10000000)
		(0.55307263 0.23140914 0.10000000)
		(0.56983240 0.23848394 0.10000000)
		(0.58659218 0.24390179 0.10000000)
		(0.60335196 0.24762505 0.10000000)
		(0.62011173 0.24962785 0.10000000)
		(0.63687151 0.24989627 0.10000000)
		(0.65363128 0.24842845 0.10000000)
		(0.67039106 0.24523459 0.10000000)
		(0.68715084 0.24033687 0.10000000)
		(0.70391061 0.23376933 0.10000000)
		(0.72067039 0.22557759 0.10000000)
		(0.73743017 0.21581857 0.10000000)
		(0.75418994 0.20456008 0.10000000)
		(0.77094972 0.19188034 0.10000000)
		(0.78770950 0.17786744 0.10000000)
		(0.80446927 0.16261874 0.10000000)
		(0.82122905 0.14624020 0.10000000)
		(0.83798883 0.12884560 0.10000000)
		(0.85474860 0.11055579 0.10000000)
		(0.87150838 0.09149787 0.10000000)
		(0.88826816 0.07180423 0.10000000)
		(0.90502793 0.05161170 0.10000000)
		(0.92178771 0.03106059 0.10000000)
		(0.93854749 0.01029367 0.10000000)
		(0.95530726 -0.01054477 0.10000000)
		(0.97206704 -0.03130995 0.10000000)
		(0.98882682 -0.05185759 0.10000000)
		(1.00558659 -0.07204492 0.10000000)
		(1.02234637 -0.09173171 0.10000000)
		(1.03910615 -0.11078115 0.10000000)
		(1.05586592 -0.12906090 0.10000000)
		(1.07262570 -0.14644396 0.10000000)
		(1.08938547 -0.16280955 0.10000000)
		(1.10614525 -0.17804396 0.10000000)
		(1.12290503 -0.19204135 0.10000000)
		(1.13966480 -0.20470446 0.10000000)
		(1.15642458 -0.21594532 0.10000000)
		(1.17318436 -0.22568582 0.10000000)
		(1.18994413 -0.23385829 0.10000000)
		(1.20670391 -0.24040595 0.10000000)
		(1.22346369 -0.24528330 0.10000000)
		(1.24022346 -0.24845646 0.10000000)
		(1.25698324 -0.24990339 0.10000000)
		(1.27374302 -0.24961402 0.10000000)
		(1.29050279 -0.24759037 0.10000000)
		(1.30726257 -0.24384650 0.10000000)
		(1.32402235 -0.23840842 0.10000000)
		(1.34078212 -0.23131392 0.10000000)
		(1.35754190 -0.22261228 0.10000000)
		(1.37430168 -0.21236396 0.10000000)
		(1.39106145 -0.20064018 0.10000000)
		(1.40782123 -0.18752237 0.10000000)
		(1.42458101 -0.17310169 0.10000000)
		(1.44134078 -0.15747832 0.10000000)
		(1.45810056 -0.14076081 0.10000000)
		(1.47486034 -0.12306533 0.10000000)
		(1.49162011 -0.10451480 0.10000000)
		(1.50837989 -0.08523812 0.10000000)
		(1.52513966 -0.06536921 0.10000000)
		(1.54189944 -0.04504613 0.10000000)
		(1.55865922 -0.02441008 0.10000000)
		(1.57541899 -0.00360443 0.10000000)
		(1.59217877 0.01722626 0.10000000)
		(1.60893855 0.03793727 0.10000000)
		(1.62569832 0.05838469 0.10000000)
		(1.64245810 0.07842647 0.10000000)
		(1.65921788 0.09792335 0.10000000)
		(1.67597765 0.11673988 0.10000000)
		(1.69273743 0.13474531 0.10000000)
		(1.70949721 0.15181455 0.10000000)
		(1.72625698 0.16782901 0.10000000)
		(1.74301676 0.18267742 0.10000000)
		(1.75977654 0.19625661 0.10000000)
		(1.77653631 0.20847224 0.10000000)
		(1.79329609 0.21923944 0.10000000)
		(1.81005587 0.22848340 0.10000000)
		(1.82681564 0.23613988 0.10000000)
		(1.84357542 0.24215570 0.10000000)
		(1.86033520 0.24648906 0.10000000)
		(1.87709497 0.24910985 0.10000000)
		(1.89385475 0.24999987 0.10000000)
		(1.91061453 0.24915292 0.10000000)
		(1.92737430 0.24657489 0.10000000)
		(1.94413408 0.24228370 0.10000000)
		(1.96089385 0.23630916 0.10000000)
		(1.97765363 0.22869278 0.10000000)
		(1.99441341 0.21948747 0.10000000)
		(2.01117318 0.20875720 0.10000000)
		(2.02793296 0.19657651 0.10000000)
		(2.04469274 0.18303004 0.10000000)
		(2.06145251 0.16821191 0.10000000)
		(2.07821229 0.15222506 0.10000000)
		(2.09497207 0.13518058 0.10000000)
		(2.11173184 0.11719688 0.10000000)
		(2.12849162 0.09839892 0.10000000)
		(2.14525140 0.07891729 0.10000000)
		(2.16201117 0.05888736 0.10000000)
		(2.17877095 0.03844829 0.10000000)
		(2.19553073 0.01774209 0.10000000)
		(2.21229050 -0.00308739 0.10000000)
		(2.22905028 -0.02389541 0.10000000)
		(2.24581006 -0.04453741 0.10000000)
		(2.26256983 -0.06486997 0.10000000)
		(2.27932961 -0.08475183 0.10000000)
		(2.29608939 -0.10404484 0.10000000)
		(2.31284916 -0.12261496 0.10000000)
		(2.32960894 -0.14033317 0.10000000)
		(2.34636872 -0.15707637 0.10000000)
		(2.36312849 -0.17272823 0.10000000)
		(2.37988827 -0.18718000 0.10000000)
		(2.39664804 -0.20033126 0.10000000)
		(2.41340782 -0.21209066 0.10000000)
		(2.43016760 -0.22237648 0.10000000)
		(2.44692737 -0.23111727 0.10000000)
		(2.46368715 -0.23825228 0.10000000)
		(2.48044693 -0.24373196 0.10000000)
		(2.49720670 -0.24751822 0.10000000)
		(2.51396648 -0.24958476 0.10000000)
		(2.53072626 -0.24991723 0.10000000)
		(2.54748603 -0.24851330 0.10000000)
		(2.56424581 -0.24538275 0.10000000)
		(2.58100559 -0.24054731 0.10000000)
		(2.59776536 -0.23404058 0.10000000)
		(2.61452514 -0.22590778 0.10000000)
		(2.63128492 -0.21620540 0.10000000)
		(2.64804469 -0.20500086 0.10000000)
		(2.66480447 -0.19237200 0.10000000)
		(2.68156425 -0.17840658 0.10000000)
		(2.69832402 -0.16320161 0.10000000)
		(2.71508380 -0.14686274 0.10000000)
		(2.73184358 -0.12950349 0.10000000)
		(2.74860335 -0.11124447 0.10000000)
		(2.76536313 -0.09221254 0.10000000)
		(2.78212291 -0.07253993 0.10000000)
		(2.79888268 -0.05236332 0.10000000)
		(2.81564246 -0.03182290 0.10000000)
		(2.83240223 -0.01106138 0.10000000)
		(2.84916201 0.00977699 0.10000000)
		(2.86592179 0.03054743 0.10000000)
		(2.88268156 0.05110564 0.10000000)
		(2.89944134 0.07130877 0.10000000)
		(2.91620112 0.09101646 0.10000000)
		(2.93296089 0.11009178 0.10000000)
		(2.95166480 0.12290004 0.10000000)
		(2.97036872 0.13436006 0.10000000)
		(2.98907263 0.14447185 0.10000000)
		(3.00777654 0.15323540 0.10000000)
		(3.02648045 0.16065071 0.10000000)
		(3.04518436 0.16671778 0.10000000)
		(3.06388827 0.17143662 0.10000000)
		(3.08259218 0.17480721 0.10000000)
		(3.10129609 0.17682957 0.10000000)
		(3.12000000 0.17750369 0.10000000)
		(3.14000000 0.17750369 0.10000000)
		(3.16000000 0.17750369 0.10000000)
		(3.18000000 0.17750369 0.10000000)
		(3.20000000 0.17750369 0.10000000)
		(3.22000000 0.17750369 0.10000000)
		(3.24000000 0.17750369 0.10000000)
		(3.26000000 0.17750369 0.10000000)
		(3.28000000 0.17750369 0.10000000)
		(3.30000000 0.17750369 0.10000000)
		(3.32000000 0.17750369 0.10000000)
		(3.34000000 0.17750369 0.10000000)
		(3.36000000 0.17750369 0.10000000)
		(3.38000000 0.17750369 0.10000000)
		(3.40000000 0.17750369 0.10000000)
		(3.42000000 0.17750369 0.10000000)
		(3.44000000 0.17750369 0.10000000)
		(3.46000000 0.17750369 0.10000000)
		(3.48000000 0.17750369 0.10000000)
		(3.50000000 0.17750369 0.10000000)
		(3.52000000 0.17750369 0.10000000)
		(3.54000000 0.17750369 0.10000000)
		(3.56000000 0.17750369 0.10000000)
		(3.58000000 0.17750369 0.10000000)
		(3.60000000 0.17750369 0.10000000)
		(3.62000000 0.17750369 0.10000000)
		(3.64000000 0.17750369 0.10000000)
		(3.66000000 0.17750369 0.10000000)
		(3.68000000 0.17750369 0.10000000)
		(3.70000000 0.17750369 0.10000000)
		(3.72000000 0.17750369 0.10000000)
		(3.74000000 0.17750369 0.10000000)
		(3.76000000 0.17750369 0.10000000)
		(3.78000000 0.17750369 0.10000000)
		(3.80000000 0.17750369 0.10000000)
		(3.82000000 0.17750369 0.10000000)
		(3.84000000 0.17750369 0.10000000)
		(3.86000000 0.17750369 0.10000000)
		(3.88000000 0.17750369 0.10000000)
		(3.90000000 0.17750369 0.10000000)
		(3.92000000 0.17750369 0.10000000)
		(3.94000000 0.17750369 0.10000000)
		(3.96000000 0.17750369 0.10000000)
		(3.98000000 0.17750369 0.10000000)
		(4.00000000 0.17750369 0.10000000)
	)
	polyLine 3 2
	(
		(-1.00000000 0.25000052 0.00000000)
		(-0.98000000 0.25164032 0.00000000)
		(-0.96000000 0.25328013 0.00000000)
		(-0.94000000 0.25491993 0.00000000)
		(-0.92000000 0.25655974 0.00000000)
		(-0.90000000 0.25819954 0.00000000)
		(-0.88000000 0.25983935 0.00000000)
		(-0.86000000 0.26147915 0.00000000)
		(-0.84000000 0.26311895 0.00000000)
		(-0.82000000 0.26475876 0.00000000)
		(-0.80000000 0.26639856 0.00000000)
		(-0.78000000 0.26803837 0.00000000)
		(-0.76000000 0.26967817 0.00000000)
		(-0.74000000 0.27131798 0.00000000)
		(-0.72000000 0.27295778 0.00000000)
		(-0.70000000 0.27459758 0.00000000)
		(-0.68000000 0.27623739 0.00000000)
		(-0.66000000 0.27787719 0.00000000)
		(-0.64000000 0.27951700 0.00000000)
		(-0.62000000 0.28115680 0.00000000)
		(-0.60000000 0.28279661 0.00000000)
		(-0.58000000 0.28443641 0.00000000)
		(-0.56000000 0.28607621 0.00000000)
		(-0.54000000 0.28771602 0.00000000)
		(-0.52000000 0.28935582 0.00000000)
		(-0.50000000 0.29099563 0.00000000)
		(-0.48000000 0.29263543 0.00000000)
		(-0.46000000 0.29427524 0.00000000)
		(-0.44000000 0.29591504 0.00000000)
		(-0.42000000 0.29755484 0.00000000)
		(-0.40000000 0.29919465 0.00000000)
		(-0.38000000 0.30083445 0.00000000)
		(-0.36000000 0.30247426 0.00000000)
		(-0.34000000 0.30411406 0.00000000)
		(-0.32000000 0.30575387 0.00000000)
		(-0.30000000 0.30739367 0.00000000)
		(-0.28000000 0.30903348 0.00000000)
		(-0.26000000 0.31067328 0.00000000)
		(-0.24000000 0.31231308 0.00000000)
		(-0.22000000 0.31395289 0.00000000)
		(-0.20000000 0.31559269 0.00000000)
		(-0.18000000 0.31723250 0.00000000)
		(-0.16000000 0.31887230 0.00000000)
		(-0.14000000 0.32051211 0.00000000)
		(-0.12000000 0.32215191 0.00000000)
		(-0.10000000 0.32379171 0.00000000)
		(-0.08162011 0.32483948 0.00000000)
		(-0.06324022 0.32612618 0.00000000)
		(-0.04486034 0.32765179 0.00000000)
		(-0.02648045 0.32941634 0.00000000)
		(-0.00810056 0.33141980 0.00000000)
		(0.01027933 0.33366219 0.00000000)
		(0.02865922 0.33614351 0.00000000)
		(0.04703911 0.33886374 0.00000000)
		(0.06541899 0.34182291 0.00000000)
		(0.08379888 0.34502099 0.00000000)
		(0.10055866 0.35130666 0.00000000)
		(0.11731844 0.35862542 0.00000000)
		(0.13407821 0.36692643 0.00000000)
		(0.15083799 0.37615202 0.00000000)
		(0.16759777 0.38623808 0.00000000)
		(0.18435754 0.39711455 0.00000000)
		(0.20111732 0.40870585 0.00000000)
		(0.21787709 0.42093144 0.00000000)
		(0.23463687 0.43370639 0.00000000)
		(0.25139665 0.44694194 0.00000000)
		(0.26815642 0.46054613 0.00000000)
		(0.28491620 0.47442444 0.00000000)
		(0.30167598 0.48848045 0.00000000)
		(0.31843575 0.50261649 0.00000000)
		(0.33519553 0.51673435 0.00000000)
		(0.35195531 0.53073594 0.00000000)
		(0.36871508 0.54452399 0.00000000)
		(0.38547486 0.55800269 0.00000000)
		(0.40223464 0.57107839 0.00000000)
		(0.41899441 0.58366026 0.00000000)
		(0.43575419 0.59566086 0.00000000)
		(0.45251397 0.60699683 0.00000000)
		(0.46927374 0.61758940 0.00000000)
		(0.48603352 0.62736497 0.00000000)
		(0.50279330 0.63625563 0.00000000)
		(0.51955307 0.64419961 0.00000000)
		(0.53631285 0.65114171 0.00000000)
		(0.55307263 0.65703371 0.00000000)
		(0.56983240 0.66183465 0.00000000)
		(0.58659218 0.66551119 0.00000000)
		(0.60335196 0.66803779 0.00000000)
		(0.62011173 0.66939688 0.00000000)
		(0.63687151 0.66957903 0.00000000)
		(0.65363128 0.66858297 0.00000000)
		(0.67039106 0.66641562 0.00000000)
		(0.68715084 0.66309204 0.00000000)
		(0.70391061 0.65863532 0.00000000)
		(0.72067039 0.65307643 0.00000000)
		(0.73743017 0.64645399 0.00000000)
		(0.75418994 0.63881400 0.00000000)
		(0.77094972 0.63020955 0.00000000)
		(0.78770950 0.62070043 0.00000000)
		(0.80446927 0.61035270 0.00000000)
		(0.82122905 0.59923826 0.00000000)
		(0.83798883 0.58743432 0.00000000)
		(0.85474860 0.57502291 0.00000000)
		(0.87150838 0.56209024 0.00000000)
		(0.88826816 0.54872618 0.00000000)
		(0.90502793 0.53502358 0.00000000)
		(0.92178771 0.52107764 0.00000000)
		(0.93854749 0.50698526 0.00000000)
		(0.95530726 0.49284434 0.00000000)
		(0.97206704 0.47875314 0.00000000)
		(0.98882682 0.46480956 0.00000000)
		(1.00558659 0.45111048 0.00000000)
		(1.02234637 0.43775108 0.00000000)
		(1.03910615 0.42482417 0.00000000)
		(1.05586592 0.41241957 0.00000000)
		(1.07262570 0.40062347 0.00000000)
		(1.08938547 0.38951782 0.00000000)
		(1.10614525 0.37917978 0.00000000)
		(1.12290503 0.36968119 0.00000000)
		(1.13966480 0.36108803 0.00000000)
		(1.15642458 0.35346001 0.00000000)
		(1.17318436 0.34685013 0.00000000)
		(1.18994413 0.34130431 0.00000000)
		(1.20670391 0.33686108 0.00000000)
		(1.22346369 0.33355132 0.00000000)
		(1.24022346 0.33139802 0.00000000)
		(1.25698324 0.33041614 0.00000000)
		(1.27374302 0.33061250 0.00000000)
		(1.29050279 0.33198575 0.00000000)
		(1.30726257 0.33452633 0.00000000)
		(1.32402235 0.33821660 0.00000000)
		(1.34078212 0.34303091 0.00000000)
		(1.35754190 0.34893582 0.00000000)
		(1.37430168 0.35589031 0.00000000)
		(1.39106145 0.36384604 0.00000000)
		(1.40782123 0.37274775 0.00000000)
		(1.42458101 0.38253360 0.00000000)
		(1.44134078 0.39313558 0.00000000)
		(1.45810056 0.40448004 0.00000000)
		(1.47486034 0.41648815 0.00000000)
		(1.49162011 0.42907650 0.00000000)
		(1.50837989 0.44215761 0.00000000)
		(1.52513966 0.45564060 0.00000000)
		(1.54189944 0.46943180 0.00000000)
		(1.55865922 0.48343538 0.00000000)
		(1.57541899 0.49755404 0.00000000)
		(1.59217877 0.51168970 0.00000000)
		(1.60893855 0.52574414 0.00000000)
		(1.62569832 0.53961972 0.00000000)
		(1.64245810 0.55322002 0.00000000)
		(1.65921788 0.56645056 0.00000000)
		(1.67597765 0.57921941 0.00000000)
		(1.69273743 0.59143786 0.00000000)
		(1.70949721 0.60302101 0.00000000)
		(1.72625698 0.61388838 0.00000000)
		(1.74301676 0.62396448 0.00000000)
		(1.75977654 0.63317928 0.00000000)
		(1.77653631 0.64146878 0.00000000)
		(1.79329609 0.64877538 0.00000000)
		(1.81005587 0.65504830 0.00000000)
		(1.82681564 0.66024398 0.00000000)
		(1.84357542 0.66432630 0.00000000)
		(1.86033520 0.66726691 0.00000000)
		(1.87709497 0.66904537 0.00000000)
		(1.89385475 0.66964933 0.00000000)
		(1.91061453 0.66907459 0.00000000)
		(1.92737430 0.66732515 0.00000000)
		(1.94413408 0.66441316 0.00000000)
		(1.96089385 0.66035885 0.00000000)
		(1.97765363 0.65519039 0.00000000)
		(1.99441341 0.64894369 0.00000000)
		(2.01117318 0.64166215 0.00000000)
		(2.02793296 0.63339637 0.00000000)
		(2.04469274 0.62420376 0.00000000)
		(2.06145251 0.61414821 0.00000000)
		(2.07821229 0.60329957 0.00000000)
		(2.09497207 0.59173323 0.00000000)
		(2.11173184 0.57952953 0.00000000)
		(2.12849162 0.56677328 0.00000000)
		(2.14525140 0.55355309 0.00000000)
		(2.16201117 0.53996083 0.00000000)
		(2.17877095 0.52609092 0.00000000)
		(2.19553073 0.51203974 0.00000000)
		(2.21229050 0.49790491 0.00000000)
		(2.22905028 0.48378463 0.00000000)
		(2.24581006 0.46977702 0.00000000)
		(2.26256983 0.45597939 0.00000000)
		(2.27932961 0.44248761 0.00000000)
		(2.29608939 0.42939541 0.00000000)
		(2.31284916 0.41679377 0.00000000)
		(2.32960894 0.40477023 0.00000000)
		(2.34636872 0.39340834 0.00000000)
		(2.36312849 0.38278702 0.00000000)
		(2.37988827 0.37298009 0.00000000)
		(2.39664804 0.36405567 0.00000000)
		(2.41340782 0.35607577 0.00000000)
		(2.43016760 0.34909583 0.00000000)
		(2.44692737 0.34316436 0.00000000)
		(2.46368715 0.33832255 0.00000000)
		(2.48044693 0.33460406 0.00000000)
		(2.49720670 0.33203471 0.00000000)
		(2.51396648 0.33063236 0.00000000)