/*--------------------------------*- C++ -*----------------------------------*\\
/*--------------------------------*- C++ -*----------------------------------*\\
| =========                 |                                                 |
| \\\\      /  F ield         | OpenFOAM: The Open Source CFD Toolbox           |
|  \\\\    /   O peration     | Version:  v2012                                 |
|   \\\\  /    A nd           | Website:  www.openfoam.com                      |
|    \\\\/     M anipulation  |                                                 |
\\*---------------------------------------------------------------------------*/
FoamFile
{
    version     2.0;
    format      ascii;
    class       dictionary;
    object      blockMeshDict;
}
// * * * * * * * * * * * * * * * * * * * * * * * * * * * * * * * * * * * * * //

scale   0.01;

xmin -1;
xmax 5;
ymin 0;
ymax 0.5;
zmin 0;
zmax 0.1;

vertices
(
    (-1.00000000 0.24906331 0.00000000)
    (4.00000000 0.18299472 0.00000000)
    (4.00000000 0.68299472 0.00000000)
    (-1.00000000 0.74906331 0.00000000)
    (-1.00000000 0.24906331 0.10000000)
    (4.00000000 0.18299472 0.10000000)
    (4.00000000 0.68299472 0.10000000)
    (-1.00000000 0.74906331 0.10000000)
);

blocks
(
    hex (0 1 2 3 4 5 6 7) (200 20 1) simpleGrading (1 1 1)
);

edges
(
	polyLine 0 1
	(
		(-1.00000000 0.24906331 0.00000000)
		(-0.98000000 0.24906331 0.00000000)
		(-0.96000000 0.24906331 0.00000000)
		(-0.94000000 0.24906331 0.00000000)
		(-0.92000000 0.24906331 0.00000000)
		(-0.90000000 0.24906331 0.00000000)
		(-0.88000000 0.24906331 0.00000000)
		(-0.86000000 0.24906331 0.00000000)
		(-0.84000000 0.24906331 0.00000000)
		(-0.82000000 0.24906331 0.00000000)
		(-0.80000000 0.24906331 0.00000000)
		(-0.78000000 0.24906331 0.00000000)
		(-0.76000000 0.24906331 0.00000000)
		(-0.74000000 0.24906331 0.00000000)
		(-0.72000000 0.24906331 0.00000000)
		(-0.70000000 0.24906331 0.00000000)
		(-0.68000000 0.24906331 0.00000000)
		(-0.66000000 0.24906331 0.00000000)
		(-0.64000000 0.24906331 0.00000000)
		(-0.62000000 0.24906331 0.00000000)
		(-0.60000000 0.24906331 0.00000000)
		(-0.58000000 0.24906331 0.00000000)
		(-0.56000000 0.24906331 0.00000000)
		(-0.54000000 0.24906331 0.00000000)
		(-0.52000000 0.24906331 0.00000000)
		(-0.50000000 0.24906331 0.00000000)
		(-0.48000000 0.24906331 0.00000000)
		(-0.46000000 0.24906331 0.00000000)
		(-0.44000000 0.24906331 0.00000000)
		(-0.42000000 0.24906331 0.00000000)
		(-0.40000000 0.24906331 0.00000000)
		(-0.38000000 0.24906331 0.00000000)
		(-0.36000000 0.24906331 0.00000000)
		(-0.34000000 0.24906331 0.00000000)
		(-0.32000000 0.24906331 0.00000000)
		(-0.30000000 0.24906331 0.00000000)
		(-0.28000000 0.24906331 0.00000000)
		(-0.26000000 0.24906331 0.00000000)
		(-0.24000000 0.24906331 0.00000000)
		(-0.22000000 0.24906331 0.00000000)
		(-0.20000000 0.24906331 0.00000000)
		(-0.18000000 0.24906331 0.00000000)
		(-0.16000000 0.24906331 0.00000000)
		(-0.14000000 0.24906331 0.00000000)
		(-0.12000000 0.24906331 0.00000000)
		(-0.10000000 0.24906331 0.00000000)
		(-0.08162011 0.24886123 0.00000000)
		(-0.06324022 0.24825496 0.00000000)
		(-0.04486034 0.24724452 0.00000000)
		(-0.02648045 0.24582990 0.00000000)
		(-0.00810056 0.24401110 0.00000000)
		(0.01027933 0.24178813 0.00000000)
		(0.02865922 0.23916098 0.00000000)
		(0.04703911 0.23612966 0.00000000)
		(0.06541899 0.23269416 0.00000000)
		(0.08379888 0.22885448 0.00000000)
		(0.10055866 0.22177375 0.00000000)
		(0.11731844 0.21374098 0.00000000)
		(0.13407821 0.20479063 0.00000000)
		(0.15083799 0.19496115 0.00000000)
		(0.16759777 0.18429472 0.00000000)
		(0.18435754 0.17283713 0.00000000)
		(0.20111732 0.16063757 0.00000000)
		(0.21787709 0.14774841 0.00000000)
		(0.23463687 0.13422498 0.00000000)
		(0.25139665 0.12012534 0.00000000)
		(0.26815642 0.10551002 0.00000000)
		(0.28491620 0.09044175 0.00000000)
		(0.30167598 0.07498523 0.00000000)
		(0.31843575 0.05920680 0.00000000)
		(0.33519553 0.04317421 0.00000000)
		(0.35195531 0.02695627 0.00000000)
		(0.36871508 0.01062261 0.00000000)
		(0.38547486 -0.00575665 0.00000000)
		(0.40223464 -0.02211119 0.00000000)
		(0.41899441 -0.03837082 0.00000000)
		(0.43575419 -0.05446572 0.00000000)
		(0.45251397 -0.07032681 0.00000000)
		(0.46927374 -0.08588599 0.00000000)
		(0.48603352 -0.10107648 0.00000000)
		(0.50279330 -0.11583305 0.00000000)
		(0.51955307 -0.13009237 0.00000000)
		(0.53631285 -0.14379321 0.00000000)
		(0.55307263 -0.15687677 0.00000000)
		(0.56983240 -0.16928687 0.00000000)
		(0.58659218 -0.18097024 0.00000000)
		(0.60335196 -0.19187672 0.00000000)
		(0.62011173 -0.20195950 0.00000000)
		(0.63687151 -0.21117529 0.00000000)
		(0.65363128 -0.21948453 0.00000000)
		(0.67039106 -0.22685155 0.00000000)
		(0.68715084 -0.23324472 0.00000000)
		(0.70391061 -0.23863659 0.00000000)
		(0.72067039 -0.24300402 0.00000000)
		(0.73743017 -0.24632827 0.00000000)
		(0.75418994 -0.24859505 0.00000000)
		(0.77094972 -0.24979464 0.00000000)
		(0.78770950 -0.24992190 0.00000000)
		(0.80446927 -0.24897626 0.00000000)
		(0.82122905 -0.24696180 0.00000000)
		(0.83798883 -0.24388716 0.00000000)
		(0.85474860 -0.23976554 0.00000000)
		(0.87150838 -0.23461463 0.00000000)
		(0.88826816 -0.22845654 0.00000000)
		(0.90502793 -0.22131772 0.00000000)
		(0.92178771 -0.21322881 0.00000000)
		(0.93854749 -0.20422453 0.00000000)
		(0.95530726 -0.19434353 0.00000000)
		(0.97206704 -0.18362824 0.00000000)
		(0.98882682 -0.17212465 0.00000000)
		(1.00558659 -0.15988216 0.00000000)
		(1.02234637 -0.14695330 0.00000000)
		(1.03910615 -0.13339359 0.00000000)
		(1.05586592 -0.11926124 0.00000000)
		(1.07262570 -0.10461691 0.00000000)
		(1.08938547 -0.08952348 0.00000000)
		(1.10614525 -0.07404573 0.00000000)
		(1.12290503 -0.05825010 0.00000000)
		(1.13966480 -0.04220442 0.00000000)
		(1.15642458 -0.02597756 0.00000000)
		(1.17318436 -0.00963918 0.00000000)
		(1.18994413 0.00674058 0.00000000)
		(1.20670391 0.02309140 0.00000000)
		(1.22346369 0.03934310 0.00000000)
		(1.24022346 0.05542590 0.00000000)
		(1.25698324 0.07127076 0.00000000)
		(1.27374302 0.08680966 0.00000000)
		(1.29050279 0.10197590 0.00000000)
		(1.30726257 0.11670437 0.00000000)
		(1.32402235 0.13093184 0.00000000)
		(1.34078212 0.14459723 0.00000000)
		(1.35754190 0.15764189 0.00000000)
		(1.37430168 0.17000980 0.00000000)
		(1.39106145 0.18164789 0.00000000)
		(1.40782123 0.19250617 0.00000000)
		(1.42458101 0.20253805 0.00000000)
		(1.44134078 0.21170046 0.00000000)
		(1.45810056 0.21995406 0.00000000)
		(1.47486034 0.22726342 0.00000000)
		(1.49162011 0.23359717 0.00000000)
		(1.50837989 0.23892810 0.00000000)
		(1.52513966 0.24323335 0.00000000)
		(1.54189944 0.24649442 0.00000000)
		(1.55865922 0.24869732 0.00000000)
		(1.57541899 0.24983259 0.00000000)
		(1.59217877 0.24989536 0.00000000)
		(1.60893855 0.24888535 0.00000000)
		(1.62569832 0.24680691 0.00000000)
		(1.64245810 0.24366895 0.00000000)
		(1.65921788 0.23948495 0.00000000)
		(1.67597765 0.23427286 0.00000000)
		(1.69273743 0.22805507 0.00000000)
		(1.70949721 0.22085826 0.00000000)
		(1.72625698 0.21271334 0.00000000)
		(1.74301676 0.20365525 0.00000000)
		(1.75977654 0.19372290 0.00000000)
		(1.77653631 0.18295892 0.00000000)
		(1.79329609 0.17140952 0.00000000)
		(1.81005587 0.15912427 0.00000000)
		(1.82681564 0.14615592 0.00000000)
		(1.84357542 0.13256014 0.00000000)
		(1.86033520 0.11839529 0.00000000)
		(1.87709497 0.10372219 0.00000000)
		(1.89385475 0.08860382 0.00000000)
		(1.91061453 0.07310508 0.00000000)
		(1.92737430 0.05729251 0.00000000)
		(1.94413408 0.04123399 0.00000000)
		(1.96089385 0.02499845 0.00000000)
		(1.97765363 0.00865560 0.00000000)
		(1.99441341 -0.00772440 0.00000000)
		(2.01117318 -0.02407125 0.00000000)
		(2.02793296 -0.04031476 0.00000000)
		(2.04469274 -0.05638521 0.00000000)
		(2.06145251 -0.07221360 0.00000000)
		(2.07821229 -0.08773198 0.00000000)
		(2.09497207 -0.10287374 0.00000000)
		(2.11173184 -0.11757388 0.00000000)
		(2.12849162 -0.13176928 0.00000000)
		(2.14525140 -0.14539902 0.00000000)
		(2.16201117 -0.15840457 0.00000000)
		(2.17877095 -0.17073010 0.00000000)
		(2.19553073 -0.18232272 0.00000000)
		(2.21229050 -0.19313264 0.00000000)
		(2.22905028 -0.20311346 0.00000000)
		(2.24581006 -0.21222234 0.00000000)
		(2.26256983 -0.22042018 0.00000000)
		(2.27932961 -0.22767177 0.00000000)
		(2.29608939 -0.23394600 0.00000000)
		(2.31284916 -0.23921592 0.00000000)
		(2.32960894 -0.24345891 0.00000000)
		(2.34636872 -0.24665676 0.00000000)
		(2.36312849 -0.24879574 0.00000000)
		(2.37988827 -0.24986667 0.00000000)
		(2.39664804 -0.24986495 0.00000000)
		(2.41340782 -0.24879059 0.00000000)
		(2.43016760 -0.24664819 0.00000000)
		(2.44692737 -0.24344696 0.00000000)
		(2.46368715 -0.23920065 0.00000000)
		(2.48044693 -0.23392747 0.00000000)
		(2.49720670 -0.22765006 0.00000000)
		(2.51396648 -0.22039538 0.00000000)
		(2.53072626 -0.21219457 0.00000000)
		(2.54748603 -0.20308282 0.00000000)
		(2.56424581 -0.19309927 0.00000000)
		(2.58100559 -0.18228676 0.00000000)
		(2.59776536 -0.17069172 0.00000000)
		(2.61452514 -0.15836391 0.00000000)
		(2.63128492 -0.14535627 0.00000000)
		(2.64804469 -0.13172463 0.00000000)
		(2.66480447 -0.11752751 0.00000000)
		(2.68156425 -0.10282585 0.00000000)
		(2.69832402 -0.08768278 0.00000000)
		(2.71508380 -0.07216329 0.00000000)
		(2.73184358 -0.05633402 0.00000000)
		(2.74860335 -0.04026291 0.00000000)
		(2.76536313 -0.02401895 0.00000000)
		(2.78212291 -0.00767189 0.00000000)
		(2.79888268 0.00870811 0.00000000)
		(2.81564246 0.02505073 0.00000000)
		(2.83240223 0.04128581 0.00000000)
		(2.84916201 0.05734365 0.00000000)
		(2.86592179 0.07315532 0.00000000)
		(2.88268156 0.08865294 0.00000000)
		(2.89944134 0.10376999 0.00000000)
		(2.91620112 0.11844157 0.00000000)
		(2.93296089 0.13260468 0.00000000)
		(2.95166480 0.14217879 0.00000000)
		(2.97036872 0.15074510 0.00000000)
		(2.98907263 0.15830360 0.00000000)
		(3.00777654 0.16485431 0.00000000)
		(3.02648045 0.17039721 0.00000000)
		(3.04518436 0.17493232 0.00000000)
		(3.06388827 0.17845962 0.00000000)
		(3.08259218 0.18097912 0.00000000)
		(3.10129609 0.18249082 0.00000000)
		(3.12000000 0.18299472 0.00000000)
		(3.14000000 0.18299472 0.00000000)
		(3.16000000 0.18299472 0.00000000)
		(3.18000000 0.18299472 0.00000000)
		(3.20000000 0.18299472 0.00000000)
		(3.22000000 0.18299472 0.00000000)
		(3.24000000 0.18299472 0.00000000)
		(3.26000000 0.18299472 0.00000000)
		(3.28000000 0.18299472 0.00000000)
		(3.30000000 0.18299472 0.00000000)
		(3.32000000 0.18299472 0.00000000)
		(3.34000000 0.18299472 0.00000000)
		(3.36000000 0.18299472 0.00000000)
		(3.38000000 0.18299472 0.00000000)
		(3.40000000 0.18299472 0.00000000)
		(3.42000000 0.18299472 0.00000000)
		(3.44000000 0.18299472 0.00000000)
		(3.46000000 0.18299472 0.00000000)
		(3.48000000 0.18299472 0.00000000)
		(3.50000000 0.18299472 0.00000000)
		(3.52000000 0.18299472 0.00000000)
		(3.54000000 0.18299472 0.00000000)
		(3.56000000 0.18299472 0.00000000)
		(3.58000000 0.18299472 0.00000000)
		(3.60000000 0.18299472 0.00000000)
		(3.62000000 0.18299472 0.00000000)
		(3.64000000 0.18299472 0.00000000)
		(3.66000000 0.18299472 0.00000000)
		(3.68000000 0.18299472 0.00000000)
		(3.70000000 0.18299472 0.00000000)
		(3.72000000 0.18299472 0.00000000)
		(3.74000000 0.18299472 0.00000000)
		(3.76000000 0.18299472 0.00000000)
		(3.78000000 0.18299472 0.00000000)
		(3.80000000 0.18299472 0.00000000)
		(3.82000000 0.18299472 0.00000000)
		(3.84000000 0.18299472 0.00000000)
		(3.86000000 0.18299472 0.00000000)
		(3.88000000 0.18299472 0.00000000)
		(3.90000000 0.18299472 0.00000000)
		(3.92000000 0.18299472 0.00000000)
		(3.94000000 0.18299472 0.00000000)
		(3.96000000 0.18299472 0.00000000)
		(3.98000000 0.18299472 0.00000000)
		(4.00000000 0.18299472 0.00000000)
	)
	polyLine 4 5
	(
		(-1.00000000 0.24906331 0.10000000)
		(-0.98000000 0.24906331 0.10000000)
		(-0.96000000 0.24906331 0.10000000)
		(-0.94000000 0.24906331 0.10000000)
		(-0.92000000 0.24906331 0.10000000)
		(-0.90000000 0.24906331 0.10000000)
		(-0.88000000 0.24906331 0.10000000)
		(-0.86000000 0.24906331 0.10000000)
		(-0.84000000 0.24906331 0.10000000)
		(-0.82000000 0.24906331 0.10000000)
		(-0.80000000 0.24906331 0.10000000)
		(-0.78000000 0.24906331 0.10000000)
		(-0.76000000 0.24906331 0.10000000)
		(-0.74000000 0.24906331 0.10000000)
		(-0.72000000 0.24906331 0.10000000)
		(-0.70000000 0.24906331 0.10000000)
		(-0.68000000 0.24906331 0.10000000)
		(-0.66000000 0.24906331 0.10000000)
		(-0.64000000 0.24906331 0.10000000)
		(-0.62000000 0.24906331 0.10000000)
		(-0.60000000 0.24906331 0.10000000)
		(-0.58000000 0.24906331 0.10000000)
		(-0.56000000 0.24906331 0.10000000)
		(-0.54000000 0.24906331 0.10000000)
		(-0.52000000 0.24906331 0.10000000)
		(-0.50000000 0.24906331 0.10000000)
		(-0.48000000 0.24906331 0.10000000)
		(-0.46000000 0.24906331 0.10000000)
		(-0.44000000 0.24906331 0.10000000)
		(-0.42000000 0.24906331 0.10000000)
		(-0.40000000 0.24906331 0.10000000)
		(-0.38000000 0.24906331 0.10000000)
		(-0.36000000 0.24906331 0.10000000)
		(-0.34000000 0.24906331 0.10000000)
		(-0.32000000 0.24906331 0.10000000)
		(-0.30000000 0.24906331 0.10000000)
		(-0.28000000 0.24906331 0.10000000)
		(-0.26000000 0.24906331 0.10000000)
		(-0.24000000 0.24906331 0.10000000)
		(-0.22000000 0.24906331 0.10000000)
		(-0.20000000 0.24906331 0.10000000)
		(-0.18000000 0.24906331 0.10000000)
		(-0.16000000 0.24906331 0.10000000)
		(-0.14000000 0.24906331 0.10000000)
		(-0.12000000 0.24906331 0.10000000)
		(-0.10000000 0.24906331 0.10000000)
		(-0.08162011 0.24886123 0.10000000)
		(-0.06324022 0.24825496 0.10000000)
		(-0.04486034 0.24724452 0.10000000)
		(-0.02648045 0.24582990 0.10000000)
		(-0.00810056 0.24401110 0.10000000)
		(0.01027933 0.24178813 0.10000000)
		(0.02865922 0.23916098 0.10000000)
		(0.04703911 0.23612966 0.10000000)
		(0.06541899 0.23269416 0.10000000)
		(0.08379888 0.22885448 0.10000000)
		(0.10055866 0.22177375 0.10000000)
		(0.11731844 0.21374098 0.10000000)
		(0.13407821 0.20479063 0.10000000)
		(0.15083799 0.19496115 0.10000000)
		(0.16759777 0.18429472 0.10000000)
		(0.18435754 0.17283713 0.10000000)
		(0.20111732 0.16063757 0.10000000)
		(0.21787709 0.14774841 0.10000000)
		(0.23463687 0.13422498 0.10000000)
		(0.25139665 0.12012534 0.10000000)
		(0.26815642 0.10551002 0.10000000)
		(0.28491620 0.09044175 0.10000000)
		(0.30167598 0.07498523 0.10000000)
		(0.31843575 0.05920680 0.10000000)
		(0.33519553 0.04317421 0.10000000)
		(0.35195531 0.02695627 0.10000000)
		(0.36871508 0.01062261 0.10000000)
		(0.38547486 -0.00575665 0.10000000)
		(0.40223464 -0.02211119 0.10000000)
		(0.41899441 -0.03837082 0.10000000)
		(0.43575419 -0.05446572 0.10000000)
		(0.45251397 -0.07032681 0.10000000)
		(0.46927374 -0.08588599 0.10000000)
		(0.48603352 -0.10107648 0.10000000)
		(0.50279330 -0.11583305 0.10000000)
		(0.51955307 -0.13009237 0.10000000)
		(0.53631285 -0.14379321 0.10000000)
		(0.55307263 -0.15687677 0.10000000)
		(0.56983240 -0.16928687 0.10000000)
		(0.58659218 -0.18097024 0.10000000)
		(0.60335196 -0.19187672 0.10000000)
		(0.62011173 -0.20195950 0.10000000)
		(0.63687151 -0.21117529 0.10000000)
		(0.65363128 -0.21948453 0.10000000)
		(0.67039106 -0.22685155 0.10000000)
		(0.68715084 -0.23324472 0.10000000)
		(0.70391061 -0.23863659 0.10000000)
		(0.72067039 -0.24300402 0.10000000)
		(0.73743017 -0.24632827 0.10000000)
		(0.75418994 -0.24859505 0.10000000)
		(0.77094972 -0.24979464 0.10000000)
		(0.78770950 -0.24992190 0.10000000)
		(0.80446927 -0.24897626 0.10000000)
		(0.82122905 -0.24696180 0.10000000)
		(0.83798883 -0.24388716 0.10000000)
		(0.85474860 -0.23976554 0.10000000)
		(0.87150838 -0.23461463 0.10000000)
		(0.88826816 -0.22845654 0.10000000)
		(0.90502793 -0.22131772 0.10000000)
		(0.92178771 -0.21322881 0.10000000)
		(0.93854749 -0.20422453 0.10000000)
		(0.95530726 -0.19434353 0.10000000)
		(0.97206704 -0.18362824 0.10000000)
		(0.98882682 -0.17212465 0.10000000)
		(1.00558659 -0.15988216 0.10000000)
		(1.02234637 -0.14695330 0.10000000)
		(1.03910615 -0.13339359 0.10000000)
		(1.05586592 -0.11926124 0.10000000)
		(1.07262570 -0.10461691 0.10000000)
		(1.08938547 -0.08952348 0.10000000)
		(1.10614525 -0.07404573 0.10000000)
		(1.12290503 -0.05825010 0.10000000)
		(1.13966480 -0.04220442 0.10000000)
		(1.15642458 -0.02597756 0.10000000)
		(1.17318436 -0.00963918 0.10000000)
		(1.18994413 0.00674058 0.10000000)
		(1.20670391 0.02309140 0.10000000)
		(1.22346369 0.03934310 0.10000000)
		(1.24022346 0.05542590 0.10000000)
		(1.25698324 0.07127076 0.10000000)
		(1.27374302 0.08680966 0.10000000)
		(1.29050279 0.10197590 0.10000000)
		(1.30726257 0.11670437 0.10000000)
		(1.32402235 0.13093184 0.10000000)
		(1.34078212 0.14459723 0.10000000)
		(1.35754190 0.15764189 0.10000000)
		(1.37430168 0.17000980 0.10000000)
		(1.39106145 0.18164789 0.10000000)
		(1.40782123 0.19250617 0.10000000)
		(1.42458101 0.20253805 0.10000000)
		(1.44134078 0.21170046 0.10000000)
		(1.45810056 0.21995406 0.10000000)
		(1.47486034 0.22726342 0.10000000)
		(1.49162011 0.23359717 0.10000000)
		(1.50837989 0.23892810 0.10000000)
		(1.52513966 0.24323335 0.10000000)
		(1.54189944 0.24649442 0.10000000)
		(1.55865922 0.24869732 0.10000000)
		(1.57541899 0.24983259 0.10000000)
		(1.59217877 0.24989536 0.10000000)
		(1.60893855 0.24888535 0.10000000)
		(1.62569832 0.24680691 0.10000000)
		(1.64245810 0.24366895 0.10000000)
		(1.65921788 0.23948495 0.10000000)
		(1.67597765 0.23427286 0.10000000)
		(1.69273743 0.22805507 0.10000000)
		(1.70949721 0.22085826 0.10000000)
		(1.72625698 0.21271334 0.10000000)
		(1.74301676 0.20365525 0.10000000)
		(1.75977654 0.19372290 0.10000000)
		(1.77653631 0.18295892 0.10000000)
		(1.79329609 0.17140952 0.10000000)
		(1.81005587 0.15912427 0.10000000)
		(1.82681564 0.14615592 0.10000000)
		(1.84357542 0.13256014 0.10000000)
		(1.86033520 0.11839529 0.10000000)
		(1.87709497 0.10372219 0.10000000)
		(1.89385475 0.08860382 0.10000000)
		(1.91061453 0.07310508 0.10000000)
		(1.92737430 0.05729251 0.10000000)
		(1.94413408 0.04123399 0.10000000)
		(1.96089385 0.02499845 0.10000000)
		(1.97765363 0.00865560 0.10000000)
		(1.99441341 -0.00772440 0.10000000)
		(2.01117318 -0.02407125 0.10000000)
		(2.02793296 -0.04031476 0.10000000)
		(2.04469274 -0.05638521 0.10000000)
		(2.06145251 -0.07221360 0.10000000)
		(2.07821229 -0.08773198 0.10000000)
		(2.09497207 -0.10287374 0.10000000)
		(2.11173184 -0.11757388 0.10000000)
		(2.12849162 -0.13176928 0.10000000)
		(2.14525140 -0.14539902 0.10000000)
		(2.16201117 -0.15840457 0.10000000)
		(2.17877095 -0.17073010 0.10000000)
		(2.19553073 -0.18232272 0.10000000)
		(2.21229050 -0.19313264 0.10000000)
		(2.22905028 -0.20311346 0.10000000)
		(2.24581006 -0.21222234 0.10000000)
		(2.26256983 -0.22042018 0.10000000)
		(2.27932961 -0.22767177 0.10000000)
		(2.29608939 -0.23394600 0.10000000)
		(2.31284916 -0.23921592 0.10000000)
		(2.32960894 -0.24345891 0.10000000)
		(2.34636872 -0.24665676 0.10000000)
		(2.36312849 -0.24879574 0.10000000)
		(2.37988827 -0.24986667 0.10000000)
		(2.39664804 -0.24986495 0.10000000)
		(2.41340782 -0.24879059 0.10000000)
		(2.43016760 -0.24664819 0.10000000)
		(2.44692737 -0.24344696 0.10000000)
		(2.46368715 -0.23920065 0.10000000)
		(2.48044693 -0.23392747 0.10000000)
		(2.49720670 -0.22765006 0.10000000)
		(2.51396648 -0.22039538 0.10000000)
		(2.53072626 -0.21219457 0.10000000)
		(2.54748603 -0.20308282 0.10000000)
		(2.56424581 -0.19309927 0.10000000)
		(2.58100559 -0.18228676 0.10000000)
		(2.59776536 -0.17069172 0.10000000)
		(2.61452514 -0.15836391 0.10000000)
		(2.63128492 -0.14535627 0.10000000)
		(2.64804469 -0.13172463 0.10000000)
		(2.66480447 -0.11752751 0.10000000)
		(2.68156425 -0.10282585 0.10000000)
		(2.69832402 -0.08768278 0.10000000)
		(2.71508380 -0.07216329 0.10000000)
		(2.73184358 -0.05633402 0.10000000)
		(2.74860335 -0.04026291 0.10000000)
		(2.76536313 -0.02401895 0.10000000)
		(2.78212291 -0.00767189 0.10000000)
		(2.79888268 0.00870811 0.10000000)
		(2.81564246 0.02505073 0.10000000)
		(2.83240223 0.04128581 0.10000000)
		(2.84916201 0.05734365 0.10000000)
		(2.86592179 0.07315532 0.10000000)
		(2.88268156 0.08865294 0.10000000)
		(2.89944134 0.10376999 0.10000000)
		(2.91620112 0.11844157 0.10000000)
		(2.93296089 0.13260468 0.10000000)
		(2.95166480 0.14217879 0.10000000)
		(2.97036872 0.15074510 0.10000000)
		(2.98907263 0.15830360 0.10000000)
		(3.00777654 0.16485431 0.10000000)
		(3.02648045 0.17039721 0.10000000)
		(3.04518436 0.17493232 0.10000000)
		(3.06388827 0.17845962 0.10000000)
		(3.08259218 0.18097912 0.10000000)
		(3.10129609 0.18249082 0.10000000)
		(3.12000000 0.18299472 0.10000000)
		(3.14000000 0.18299472 0.10000000)
		(3.16000000 0.18299472 0.10000000)
		(3.18000000 0.18299472 0.10000000)
		(3.20000000 0.18299472 0.10000000)
		(3.22000000 0.18299472 0.10000000)
		(3.24000000 0.18299472 0.10000000)
		(3.26000000 0.18299472 0.10000000)
		(3.28000000 0.18299472 0.10000000)
		(3.30000000 0.18299472 0.10000000)
		(3.32000000 0.18299472 0.10000000)
		(3.34000000 0.18299472 0.10000000)
		(3.36000000 0.18299472 0.10000000)
		(3.38000000 0.18299472 0.10000000)
		(3.40000000 0.18299472 0.10000000)
		(3.42000000 0.18299472 0.10000000)
		(3.44000000 0.18299472 0.10000000)
		(3.46000000 0.18299472 0.10000000)
		(3.48000000 0.18299472 0.10000000)
		(3.50000000 0.18299472 0.10000000)
		(3.52000000 0.18299472 0.10000000)
		(3.54000000 0.18299472 0.10000000)
		(3.56000000 0.18299472 0.10000000)
		(3.58000000 0.18299472 0.10000000)
		(3.60000000 0.18299472 0.10000000)
		(3.62000000 0.18299472 0.10000000)
		(3.64000000 0.18299472 0.10000000)
		(3.66000000 0.18299472 0.10000000)
		(3.68000000 0.18299472 0.10000000)
		(3.70000000 0.18299472 0.10000000)
		(3.72000000 0.18299472 0.10000000)
		(3.74000000 0.18299472 0.10000000)
		(3.76000000 0.18299472 0.10000000)
		(3.78000000 0.18299472 0.10000000)
		(3.80000000 0.18299472 0.10000000)
		(3.82000000 0.18299472 0.10000000)
		(3.84000000 0.18299472 0.10000000)
		(3.86000000 0.18299472 0.10000000)
		(3.88000000 0.18299472 0.10000000)
		(3.90000000 0.18299472 0.10000000)
		(3.92000000 0.18299472 0.10000000)
		(3.94000000 0.18299472 0.10000000)
		(3.96000000 0.18299472 0.10000000)
		(3.98000000 0.18299472 0.10000000)
		(4.00000000 0.18299472 0.10000000)
	)
	polyLine 3 2
	(
		(-1.00000000 0.74906331 0.00000000)
		(-0.98000000 0.74828539 0.00000000)
		(-0.96000000 0.74750747 0.00000000)
		(-0.94000000 0.74672955 0.00000000)
		(-0.92000000 0.74595163 0.00000000)
		(-0.90000000 0.74517371 0.00000000)
		(-0.88000000 0.74439579 0.00000000)
		(-0.86000000 0.74361786 0.00000000)
		(-0.84000000 0.74283994 0.00000000)
		(-0.82000000 0.74206202 0.00000000)
		(-0.80000000 0.74128410 0.00000000)
		(-0.78000000 0.74050618 0.00000000)
		(-0.76000000 0.73972826 0.00000000)
		(-0.74000000 0.73895034 0.00000000)
		(-0.72000000 0.73817242 0.00000000)
		(-0.70000000 0.73739449 0.00000000)
		(-0.68000000 0.73661657 0.00000000)
		(-0.66000000 0.73583865 0.00000000)
		(-0.64000000 0.73506073 0.00000000)
		(-0.62000000 0.73428281 0.00000000)
		(-0.60000000 0.73350489 0.00000000)
		(-0.58000000 0.73272697 0.00000000)
		(-0.56000000 0.73194905 0.00000000)
		(-0.54000000 0.73117112 0.00000000)
		(-0.52000000 0.73039320 0.00000000)
		(-0.50000000 0.72961528 0.00000000)
		(-0.48000000 0.72883736 0.00000000)
		(-0.46000000 0.72805944 0.00000000)
		(-0.44000000 0.72728152 0.00000000)
		(-0.42000000 0.72650360 0.00000000)
		(-0.40000000 0.72572568 0.00000000)
		(-0.38000000 0.72494775 0.00000000)
		(-0.36000000 0.72416983 0.00000000)
		(-0.34000000 0.72339191 0.00000000)
		(-0.32000000 0.72261399 0.00000000)
		(-0.30000000 0.72183607 0.00000000)
		(-0.28000000 0.72105815 0.00000000)
		(-0.26000000 0.72028023 0.00000000)
		(-0.24000000 0.71950230 0.00000000)
		(-0.22000000 0.71872438 0.00000000)
		(-0.20000000 0.71794646 0.00000000)
		(-0.18000000 0.71716854 0.00000000)
		(-0.16000000 0.71639062 0.00000000)
		(-0.14000000 0.71561270 0.00000000)
		(-0.12000000 0.71483478 0.00000000)
		(-0.10000000 0.71405686 0.00000000)
		(-0.08162011 0.71362780 0.00000000)
		(-0.06324022 0.71284458 0.00000000)
		(-0.04486034 0.71170721 0.00000000)
		(-0.02648045 0.71021568 0.00000000)
		(-0.00810056 0.70836999 0.00000000)
		(0.01027933 0.70617015 0.00000000)
		(0.02865922 0.70361615 0.00000000)
		(0.04703911 0.70070800 0.00000000)
		(0.06541899 0.69744568 0.00000000)
		(0.08379888 0.69382922 0.00000000)
		(0.10055866 0.68783217 0.00000000)
		(0.11731844 0.68102878 0.00000000)
		(0.13407821 0.67344825 0.00000000)
		(0.15083799 0.66512313 0.00000000)
		(0.16759777 0.65608915 0.00000000)
		(0.18435754 0.64638510 0.00000000)
		(0.20111732 0.63605263 0.00000000)
		(0.21787709 0.62513611 0.00000000)
		(0.23463687 0.61368239 0.00000000)
		(0.25139665 0.60174064 0.00000000)
		(0.26815642 0.58936213 0.00000000)
		(0.28491620 0.57660000 0.00000000)
		(0.30167598 0.56350904 0.00000000)
		(0.31843575 0.55014544 0.00000000)
		(0.33519553 0.53656657 0.00000000)
		(0.35195531 0.52283072 0.00000000)
		(0.36871508 0.50899686 0.00000000)
		(0.38547486 0.49512438 0.00000000)
		(0.40223464 0.48127284 0.00000000)
		(0.41899441 0.46750168 0.00000000)
		(0.43575419 0.45387004 0.00000000)
		(0.45251397 0.44043643 0.00000000)
		(0.46927374 0.42725851 0.00000000)
		(0.48603352 0.41439287 0.00000000)
		(0.50279330 0.40189473 0.00000000)
		(0.51955307 0.38981775 0.00000000)
		(0.53631285 0.37821376 0.00000000)
		(0.55307263 0.36713259 0.00000000)
		(0.56983240 0.35662181 0.00000000)
		(0.58659218 0.34672653 0.00000000)
		(0.60335196 0.33748924 0.00000000)
		(0.62011173 0.32894959 0.00000000)
		(0.63687151 0.32114424 0.00000000)
		(0.65363128 0.31410670 0.00000000)
		(0.67039106 0.30786717 0.00000000)
		(0.68715084 0.30245245 0.00000000)
		(0.70391061 0.29788578 0.00000000)
		(0.72067039 0.29418677 0.00000000)
		(0.73743017 0.29137129 0.00000000)
		(0.75418994 0.28945143 0.00000000)
		(0.77094972 0.28843543 0.00000000)
		(0.78770950 0.28832765 0.00000000)
		(0.80446927 0.28912856 0.00000000)
		(0.82122905 0.29083471 0.00000000)
		(0.83798883 0.29343879 0.00000000)
		(0.85474860 0.29692962 0.00000000)
		(0.87150838 0.30129220 0.00000000)
		(0.88826816 0.30650781 0.00000000)
		(0.90502793 0.31255407 0.00000000)
		(0.92178771 0.31940501 0.00000000)
		(0.93854749 0.32703122 0.00000000)
		(0.95530726 0.33539997 0.00000000)
		(0.97206704 0.34447533 0.00000000)
		(0.98882682 0.35421833 0.00000000)
		(1.00558659 0.36458717 0.00000000)
		(1.02234637 0.37553731 0.00000000)
		(1.03910615 0.38702176 0.00000000)
		(1.05586592 0.39899121 0.00000000)
		(1.07262570 0.41139429 0.00000000)
		(1.08938547 0.42417773 0.00000000)
		(1.10614525 0.43728668 0.00000000)
		(1.12290503 0.45066484 0.00000000)
		(1.13966480 0.46425480 0.00000000)
		(1.15642458 0.47799820 0.00000000)
		(1.17318436 0.49183606 0.00000000)
		(1.18994413 0.50570896 0.00000000)
		(1.20670391 0.51955736 0.00000000)
		(1.22346369 0.53332179 0.00000000)
		(1.24022346 0.54694318 0.00000000)
		(1.25698324 0.56036305 0.00000000)
		(1.27374302 0.57352379 0.00000000)
		(1.29050279 0.58636890 0.00000000)
		(1.30726257 0.59884323 0.00000000)
		(1.32402235 0.61089325 0.00000000)
		(1.34078212 0.62246721 0.00000000)
		(1.35754190 0.63351543 0.00000000)
		(1.37430168 0.64399048 0.00000000)
		(1.39106145 0.65384740 0.00000000)
		(1.40782123 0.66304387 0.00000000)
		(1.42458101 0.67154041 0.00000000)
		(1.44134078 0.67930055 0.00000000)
		(1.45810056 0.68629097 0.00000000)
		(1.47486034 0.69248166 0.00000000)
		(1.49162011 0.69784606 0.00000000)
		(1.50837989 0.70236112 0.00000000)
		(1.52513966 0.70600746 0.00000000)
		(1.54189944 0.70876944 0.00000000)
		(1.55865922 0.71063519 0.00000000)
		(1.57541899 0.71159672 0.00000000)
		(1.59217877 0.71164988 0.00000000)
		(1.60893855 0.71079445 0.00000000)
		(1.62569832 0.70903410 0.00000000)
		(1.64245810 0.70637639 0.00000000)
		(1.65921788 0.70283274 0.00000000)
		(1.67597765 0.69841834 0.00000000)
		(1.69273743 0.69315216 0.00000000)
		(1.70949721 0.68705679 0.00000000)
		(1.72625698 0.68015841 0.00000000)
		(1.74301676 0.67248663 0.00000000)
		(1.75977654 0.66407439 0.00000000)
		(1.77653631 0.65495779 0.00000000)
		(1.79329609 0.64517598 0.00000000)
		(1.81005587 0.63477094 0.00000000)
		(1.82681564 0.62378734 0.00000000)
		(1.84357542 0.61227234 0.00000000)
		(1.86033520 0.60027537 0.00000000)
		(1.87709497 0.58784792 0.00000000)
		(1.89385475 0.57504336 0.00000000)
		(1.91061453 0.56191664 0.00000000)
		(1.92737430 0.54852412 0.00000000)
		(1.94413408 0.53492329 0.00000000)
		(1.96089385 0.52117254 0.00000000)
		(1.97765363 0.50733090 0.00000000)
		(1.99441341 0.49345778 0.00000000)
		(2.01117318 0.47961276 0.00000000)
		(2.02793296 0.46585525 0.00000000)
		(2.04469274 0.45224432 0.00000000)
		(2.06145251 0.43883840 0.00000000)
		(2.07821229 0.42569505 0.00000000)
		(2.09497207 0.41287067 0.00000000)
		(2.11173184 0.40042033 0.00000000)
		(2.12849162 0.38839748 0.00000000)
		(2.14525140 0.37685372 0.00000000)
		(2.16201117 0.36583862 0.00000000)
		(2.17877095 0.35539945 0.00000000)
		(2.19553073 0.34558105 0.00000000)
		(2.21229050 0.33642554 0.00000000)
		(2.22905028 0.32797224 0.00000000)
		(2.24581006 0.32025744 0.00000000)
		(2.26256983 0.31331425 0.00000000)
		(2.27932961 0.30717248 0.00000000)
		(2.29608939 0.30185850 0.00000000)
		(2.31284916 0.29739512 0.00000000)
		(2.32960894 0.29380150 0.00000000)
		(2.34636872 0.29109307 0.00000000)
		(2.36312849 0.28928145 0.00000000)
		(2.37988827 0.28837442 0.00000000)
		(2.39664804 0.28837588 0.00000000)
		(2.41340782 0.28928582 0.00000000)
		(2.43016760 0.29110033 0.00000000)
		(2.44692737 0.29381162 0.00000000)
		(2.46368715 0.29740806 0.00000000)
		(2.48044693 0.30187420 0.00000000)
		(2.49720670 0.30719087 0.00000000)
		(2.51396648 0.31333525 0.00000000)
		(2.53072626 0.32028096 0.00000000)
		(2.54748603 0.32799819 0.00000000)
		(2.56424581 0.33645380 0.00000000)