/*--------------------------------*- C++ -*----------------------------------*\\
/*--------------------------------*- C++ -*----------------------------------*\\
| =========                 |                                                 |
| \\\\      /  F ield         | OpenFOAM: The Open Source CFD Toolbox           |
|  \\\\    /   O peration     | Version:  v2012                                 |
|   \\\\  /    A nd           | Website:  www.openfoam.com                      |
|    \\\\/     M anipulation  |                                                 |
\\*---------------------------------------------------------------------------*/
FoamFile
{
    version     2.0;
    format      ascii;
    class       dictionary;
    object      blockMeshDict;
}
// * * * * * * * * * * * * * * * * * * * * * * * * * * * * * * * * * * * * * //

scale   0.01;

xmin -1;
xmax 5;
ymin 0;
ymax 0.5;
zmin 0;
zmax 0.1;

vertices
(
    (-1.00000000 0.17120439 0.00000000)
    (4.00000000 -0.22416516 0.00000000)
    (4.00000000 0.27583484 0.00000000)
    (-1.00000000 0.67120439 0.00000000)
    (-1.00000000 0.17120439 0.10000000)
    (4.00000000 -0.22416516 0.10000000)
    (4.00000000 0.27583484 0.10000000)
    (-1.00000000 0.67120439 0.10000000)
);

blocks
(
    hex (0 1 2 3 4 5 6 7) (200 20 1) simpleGrading (1 1 1)
);

edges
(
	polyLine 0 1
	(
		(-1.00000000 0.17120439 0.00000000)
		(-0.98000000 0.17120439 0.00000000)
		(-0.96000000 0.17120439 0.00000000)
		(-0.94000000 0.17120439 0.00000000)
		(-0.92000000 0.17120439 0.00000000)
		(-0.90000000 0.17120439 0.00000000)
		(-0.88000000 0.17120439 0.00000000)
		(-0.86000000 0.17120439 0.00000000)
		(-0.84000000 0.17120439 0.00000000)
		(-0.82000000 0.17120439 0.00000000)
		(-0.80000000 0.17120439 0.00000000)
		(-0.78000000 0.17120439 0.00000000)
		(-0.76000000 0.17120439 0.00000000)
		(-0.74000000 0.17120439 0.00000000)
		(-0.72000000 0.17120439 0.00000000)
		(-0.70000000 0.17120439 0.00000000)
		(-0.68000000 0.17120439 0.00000000)
		(-0.66000000 0.17120439 0.00000000)
		(-0.64000000 0.17120439 0.00000000)
		(-0.62000000 0.17120439 0.00000000)
		(-0.60000000 0.17120439 0.00000000)
		(-0.58000000 0.17120439 0.00000000)
		(-0.56000000 0.17120439 0.00000000)
		(-0.54000000 0.17120439 0.00000000)
		(-0.52000000 0.17120439 0.00000000)
		(-0.50000000 0.17120439 0.00000000)
		(-0.48000000 0.17120439 0.00000000)
		(-0.46000000 0.17120439 0.00000000)
		(-0.44000000 0.17120439 0.00000000)
		(-0.42000000 0.17120439 0.00000000)
		(-0.40000000 0.17120439 0.00000000)
		(-0.38000000 0.17120439 0.00000000)
		(-0.36000000 0.17120439 0.00000000)
		(-0.34000000 0.17120439 0.00000000)
		(-0.32000000 0.17120439 0.00000000)
		(-0.30000000 0.17120439 0.00000000)
		(-0.28000000 0.17120439 0.00000000)
		(-0.26000000 0.17120439 0.00000000)
		(-0.24000000 0.17120439 0.00000000)
		(-0.22000000 0.17120439 0.00000000)
		(-0.20000000 0.17120439 0.00000000)
		(-0.18000000 0.17120439 0.00000000)
		(-0.16000000 0.17120439 0.00000000)
		(-0.14000000 0.17120439 0.00000000)
		(-0.12000000 0.17120439 0.00000000)
		(-0.10000000 0.17120439 0.00000000)
		(-0.08162011 0.17069329 0.00000000)
		(-0.06324022 0.16916000 0.00000000)
		(-0.04486034 0.16660451 0.00000000)
		(-0.02648045 0.16302682 0.00000000)
		(-0.00810056 0.15842695 0.00000000)
		(0.01027933 0.15280487 0.00000000)
		(0.02865922 0.14616060 0.00000000)
		(0.04703911 0.13849413 0.00000000)
		(0.06541899 0.12980547 0.00000000)
		(0.08379888 0.12009462 0.00000000)
		(0.10055866 0.10883879 0.00000000)
		(0.11731844 0.09730377 0.00000000)
		(0.13407821 0.08551914 0.00000000)
		(0.15083799 0.07351514 0.00000000)
		(0.16759777 0.06132256 0.00000000)
		(0.18435754 0.04897266 0.00000000)
		(0.20111732 0.03649715 0.00000000)
		(0.21787709 0.02392801 0.00000000)
		(0.23463687 0.01129749 0.00000000)
		(0.25139665 -0.00136201 0.00000000)
		(0.26815642 -0.01401802 0.00000000)
		(0.28491620 -0.02663807 0.00000000)
		(0.30167598 -0.03918978 0.00000000)
		(0.31843575 -0.05164097 0.00000000)
		(0.33519553 -0.06395968 0.00000000)
		(0.35195531 -0.07611433 0.00000000)
		(0.36871508 -0.08807372 0.00000000)
		(0.38547486 -0.09980718 0.00000000)
		(0.40223464 -0.11128462 0.00000000)
		(0.41899441 -0.12247659 0.00000000)
		(0.43575419 -0.13335438 0.00000000)
		(0.45251397 -0.14389008 0.00000000)
		(0.46927374 -0.15405668 0.00000000)
		(0.48603352 -0.16382808 0.00000000)
		(0.50279330 -0.17317923 0.00000000)
		(0.51955307 -0.18208614 0.00000000)
		(0.53631285 -0.19052596 0.00000000)
		(0.55307263 -0.19847703 0.00000000)
		(0.56983240 -0.20591897 0.00000000)
		(0.58659218 -0.21283268 0.00000000)
		(0.60335196 -0.21920043 0.00000000)
		(0.62011173 -0.22500588 0.00000000)
		(0.63687151 -0.23023414 0.00000000)
		(0.65363128 -0.23487179 0.00000000)
		(0.67039106 -0.23890695 0.00000000)
		(0.68715084 -0.24232927 0.00000000)
		(0.70391061 -0.24512995 0.00000000)
		(0.72067039 -0.24730182 0.00000000)
		(0.73743017 -0.24883931 0.00000000)
		(0.75418994 -0.24973846 0.00000000)
		(0.77094972 -0.24999699 0.00000000)
		(0.78770950 -0.24961422 0.00000000)
		(0.80446927 -0.24859113 0.00000000)
		(0.82122905 -0.24693035 0.00000000)
		(0.83798883 -0.24463614 0.00000000)
		(0.85474860 -0.24171438 0.00000000)
		(0.87150838 -0.23817257 0.00000000)
		(0.88826816 -0.23401980 0.00000000)
		(0.90502793 -0.22926672 0.00000000)
		(0.92178771 -0.22392551 0.00000000)
		(0.93854749 -0.21800989 0.00000000)
		(0.95530726 -0.21153502 0.00000000)
		(0.97206704 -0.20451752 0.00000000)
		(0.98882682 -0.19697539 0.00000000)
		(1.00558659 -0.18892797 0.00000000)
		(1.02234637 -0.18039591 0.00000000)
		(1.03910615 -0.17140109 0.00000000)
		(1.05586592 -0.16196659 0.00000000)
		(1.07262570 -0.15211662 0.00000000)
		(1.08938547 -0.14187643 0.00000000)
		(1.10614525 -0.13127229 0.00000000)
		(1.12290503 -0.12033141 0.00000000)
		(1.13966480 -0.10908186 0.00000000)
		(1.15642458 -0.09755249 0.00000000)
		(1.17318436 -0.08577287 0.00000000)
		(1.18994413 -0.07377323 0.00000000)
		(1.20670391 -0.06158434 0.00000000)
		(1.22346369 -0.04923747 0.00000000)
		(1.24022346 -0.03676430 0.00000000)
		(1.25698324 -0.02419682 0.00000000)
		(1.27374302 -0.01156728 0.00000000)
		(1.29050279 0.00109195 0.00000000)
		(1.30726257 0.01374837 0.00000000)
		(1.32402235 0.02636952 0.00000000)
		(1.34078212 0.03892303 0.00000000)
		(1.35754190 0.05137669 0.00000000)
		(1.37430168 0.06369856 0.00000000)
		(1.39106145 0.07585703 0.00000000)
		(1.40782123 0.08782091 0.00000000)
		(1.42458101 0.09955951 0.00000000)
		(1.44134078 0.11104272 0.00000000)
		(1.45810056 0.12224108 0.00000000)
		(1.47486034 0.13312586 0.00000000)
		(1.49162011 0.14366915 0.00000000)
		(1.50837989 0.15384389 0.00000000)
		(1.52513966 0.16362399 0.00000000)
		(1.54189944 0.17298435 0.00000000)
		(1.55865922 0.18190098 0.00000000)
		(1.57541899 0.19035099 0.00000000)
		(1.59217877 0.19831270 0.00000000)
		(1.60893855 0.20576570 0.00000000)
		(1.62569832 0.21269087 0.00000000)
		(1.64245810 0.21907043 0.00000000)
		(1.65921788 0.22488804 0.00000000)
		(1.67597765 0.23012875 0.00000000)
		(1.69273743 0.23477913 0.00000000)
		(1.70949721 0.23882726 0.00000000)
		(1.72625698 0.24226274 0.00000000)
		(1.74301676 0.24507676 0.00000000)
		(1.75977654 0.24726210 0.00000000)
		(1.77653631 0.24881317 0.00000000)
		(1.79329609 0.24972597 0.00000000)
		(1.81005587 0.24999817 0.00000000)
		(1.82681564 0.24962907 0.00000000)
		(1.84357542 0.24861961 0.00000000)
		(1.86033520 0.24697240 0.00000000)
		(1.87709497 0.24469164 0.00000000)
		(1.89385475 0.24178319 0.00000000)
		(1.91061453 0.23825452 0.00000000)
		(1.92737430 0.23411467 0.00000000)
		(1.94413408 0.22937427 0.00000000)
		(1.96089385 0.22404547 0.00000000)
		(1.97765363 0.21814194 0.00000000)
		(1.99441341 0.21167884 0.00000000)
		(2.01117318 0.20467272 0.00000000)
		(2.02793296 0.19714158 0.00000000)
		(2.04469274 0.18910473 0.00000000)
		(2.06145251 0.18058278 0.00000000)
		(2.07821229 0.17159760 0.00000000)
		(2.09497207 0.16217223 0.00000000)
		(2.11173184 0.15233085 0.00000000)
		(2.12849162 0.14209871 0.00000000)
		(2.14525140 0.13150206 0.00000000)
		(2.16201117 0.12056807 0.00000000)
		(2.17877095 0.10932480 0.00000000)
		(2.19553073 0.09780109 0.00000000)
		(2.21229050 0.08602650 0.00000000)
		(2.22905028 0.07403123 0.00000000)
		(2.24581006 0.06184605 0.00000000)
		(2.26256983 0.04950223 0.00000000)
		(2.27932961 0.03703142 0.00000000)
		(2.29608939 0.02446561 0.00000000)
		(2.31284916 0.01183705 0.00000000)
		(2.32960894 -0.00082188 0.00000000)
		(2.34636872 -0.01347870 0.00000000)
		(2.36312849 -0.02610094 0.00000000)
		(2.37988827 -0.03865623 0.00000000)
		(2.39664804 -0.05111236 0.00000000)
		(2.41340782 -0.06343737 0.00000000)
		(2.43016760 -0.07559965 0.00000000)
		(2.44692737 -0.08756800 0.00000000)
		(2.46368715 -0.09931172 0.00000000)
		(2.48044693 -0.11080069 0.00000000)
		(2.49720670 -0.12200542 0.00000000)
		(2.51396648 -0.13289719 0.00000000)
		(2.53072626 -0.14344804 0.00000000)
		(2.54748603 -0.15363092 0.00000000)
		(2.56424581 -0.16341970 0.00000000)
		(2.58100559 -0.17278927 0.00000000)
		(2.59776536 -0.18171561 0.00000000)
		(2.61452514 -0.19017580 0.00000000)
		(2.63128492 -0.19814814 0.00000000)
		(2.64804469 -0.20561220 0.00000000)
		(2.66480447 -0.21254881 0.00000000)
		(2.68156425 -0.21894019 0.00000000)
		(2.69832402 -0.22476994 0.00000000)
		(2.71508380 -0.23002310 0.00000000)
		(2.73184358 -0.23468620 0.00000000)
		(2.74860335 -0.23874728 0.00000000)
		(2.76536313 -0.24219593 0.00000000)
		(2.78212291 -0.24502328 0.00000000)
		(2.79888268 -0.24722210 0.00000000)
		(2.81564246 -0.24878674 0.00000000)
		(2.83240223 -0.24971318 0.00000000)
		(2.84916201 -0.24999906 0.00000000)
		(2.86592179 -0.24964363 0.00000000)
		(2.88268156 -0.24864781 0.00000000)
		(2.89944134 -0.24701416 0.00000000)
		(2.91620112 -0.24474685 0.00000000)
		(2.93296089 -0.24185172 0.00000000)
		(2.95166480 -0.23849128 0.00000000)
		(2.97036872 -0.23548456 0.00000000)
		(2.98907263 -0.23283158 0.00000000)
		(3.00777654 -0.23053233 0.00000000)
		(3.02648045 -0.22858680 0.00000000)
		(3.04518436 -0.22699501 0.00000000)
		(3.06388827 -0.22575696 0.00000000)
		(3.08259218 -0.22487263 0.00000000)
		(3.10129609 -0.22434203 0.00000000)
		(3.12000000 -0.22416516 0.00000000)
		(3.14000000 -0.22416516 0.00000000)
		(3.16000000 -0.22416516 0.00000000)
		(3.18000000 -0.22416516 0.00000000)
		(3.20000000 -0.22416516 0.00000000)
		(3.22000000 -0.22416516 0.00000000)
		(3.24000000 -0.22416516 0.00000000)
		(3.26000000 -0.22416516 0.00000000)
		(3.28000000 -0.22416516 0.00000000)
		(3.30000000 -0.22416516 0.00000000)
		(3.32000000 -0.22416516 0.00000000)
		(3.34000000 -0.22416516 0.00000000)
		(3.36000000 -0.22416516 0.00000000)
		(3.38000000 -0.22416516 0.00000000)
		(3.40000000 -0.22416516 0.00000000)
		(3.42000000 -0.22416516 0.00000000)
		(3.44000000 -0.22416516 0.00000000)
		(3.46000000 -0.22416516 0.00000000)
		(3.48000000 -0.22416516 0.00000000)
		(3.50000000 -0.22416516 0.00000000)
		(3.52000000 -0.22416516 0.00000000)
		(3.54000000 -0.22416516 0.00000000)
		(3.56000000 -0.22416516 0.00000000)
		(3.58000000 -0.22416516 0.00000000)
		(3.60000000 -0.22416516 0.00000000)
		(3.62000000 -0.22416516 0.00000000)
		(3.64000000 -0.22416516 0.00000000)
		(3.66000000 -0.22416516 0.00000000)
		(3.68000000 -0.22416516 0.00000000)
		(3.70000000 -0.22416516 0.00000000)
		(3.72000000 -0.22416516 0.00000000)
		(3.74000000 -0.22416516 0.00000000)
		(3.76000000 -0.22416516 0.00000000)
		(3.78000000 -0.22416516 0.00000000)
		(3.80000000 -0.22416516 0.00000000)
		(3.82000000 -0.22416516 0.00000000)
		(3.84000000 -0.22416516 0.00000000)
		(3.86000000 -0.22416516 0.00000000)
		(3.88000000 -0.22416516 0.00000000)
		(3.90000000 -0.22416516 0.00000000)
		(3.92000000 -0.22416516 0.00000000)
		(3.94000000 -0.22416516 0.00000000)
		(3.96000000 -0.22416516 0.00000000)
		(3.98000000 -0.22416516 0.00000000)
		(4.00000000 -0.22416516 0.00000000)
	)
	polyLine 4 5
	(
		(-1.00000000 0.17120439 0.10000000)
		(-0.98000000 0.17120439 0.10000000)
		(-0.96000000 0.17120439 0.10000000)
		(-0.94000000 0.17120439 0.10000000)
		(-0.92000000 0.17120439 0.10000000)
		(-0.90000000 0.17120439 0.10000000)
		(-0.88000000 0.17120439 0.10000000)
		(-0.86000000 0.17120439 0.10000000)
		(-0.84000000 0.17120439 0.10000000)
		(-0.82000000 0.17120439 0.10000000)
		(-0.80000000 0.17120439 0.10000000)
		(-0.78000000 0.17120439 0.10000000)
		(-0.76000000 0.17120439 0.10000000)
		(-0.74000000 0.17120439 0.10000000)
		(-0.72000000 0.17120439 0.10000000)
		(-0.70000000 0.17120439 0.10000000)
		(-0.68000000 0.17120439 0.10000000)
		(-0.66000000 0.17120439 0.10000000)
		(-0.64000000 0.17120439 0.10000000)
		(-0.62000000 0.17120439 0.10000000)
		(-0.60000000 0.17120439 0.10000000)
		(-0.58000000 0.17120439 0.10000000)
		(-0.56000000 0.17120439 0.10000000)
		(-0.54000000 0.17120439 0.10000000)
		(-0.52000000 0.17120439 0.10000000)
		(-0.50000000 0.17120439 0.10000000)
		(-0.48000000 0.17120439 0.10000000)
		(-0.46000000 0.17120439 0.10000000)
		(-0.44000000 0.17120439 0.10000000)
		(-0.42000000 0.17120439 0.10000000)
		(-0.40000000 0.17120439 0.10000000)
		(-0.38000000 0.17120439 0.10000000)
		(-0.36000000 0.17120439 0.10000000)
		(-0.34000000 0.17120439 0.10000000)
		(-0.32000000 0.17120439 0.10000000)
		(-0.30000000 0.17120439 0.10000000)
		(-0.28000000 0.17120439 0.10000000)
		(-0.26000000 0.17120439 0.10000000)
		(-0.24000000 0.17120439 0.10000000)
		(-0.22000000 0.17120439 0.10000000)
		(-0.20000000 0.17120439 0.10000000)
		(-0.18000000 0.17120439 0.10000000)
		(-0.16000000 0.17120439 0.10000000)
		(-0.14000000 0.17120439 0.10000000)
		(-0.12000000 0.17120439 0.10000000)
		(-0.10000000 0.17120439 0.10000000)
		(-0.08162011 0.17069329 0.10000000)
		(-0.06324022 0.16916000 0.10000000)
		(-0.04486034 0.16660451 0.10000000)
		(-0.02648045 0.16302682 0.10000000)
		(-0.00810056 0.15842695 0.10000000)
		(0.01027933 0.15280487 0.10000000)
		(0.02865922 0.14616060 0.10000000)
		(0.04703911 0.13849413 0.10000000)
		(0.06541899 0.12980547 0.10000000)
		(0.08379888 0.12009462 0.10000000)
		(0.10055866 0.10883879 0.10000000)
		(0.11731844 0.09730377 0.10000000)
		(0.13407821 0.08551914 0.10000000)
		(0.15083799 0.07351514 0.10000000)
		(0.16759777 0.06132256 0.10000000)
		(0.18435754 0.04897266 0.10000000)
		(0.20111732 0.03649715 0.10000000)
		(0.21787709 0.02392801 0.10000000)
		(0.23463687 0.01129749 0.10000000)
		(0.25139665 -0.00136201 0.10000000)
		(0.26815642 -0.01401802 0.10000000)
		(0.28491620 -0.02663807 0.10000000)
		(0.30167598 -0.03918978 0.10000000)
		(0.31843575 -0.05164097 0.10000000)
		(0.33519553 -0.06395968 0.10000000)
		(0.35195531 -0.07611433 0.10000000)
		(0.36871508 -0.08807372 0.10000000)
		(0.38547486 -0.09980718 0.10000000)
		(0.40223464 -0.11128462 0.10000000)
		(0.41899441 -0.12247659 0.10000000)
		(0.43575419 -0.13335438 0.10000000)
		(0.45251397 -0.14389008 0.10000000)
		(0.46927374 -0.15405668 0.10000000)
		(0.48603352 -0.16382808 0.10000000)
		(0.50279330 -0.17317923 0.10000000)
		(0.51955307 -0.18208614 0.10000000)
		(0.53631285 -0.19052596 0.10000000)
		(0.55307263 -0.19847703 0.10000000)
		(0.56983240 -0.20591897 0.10000000)
		(0.58659218 -0.21283268 0.10000000)
		(0.60335196 -0.21920043 0.10000000)
		(0.62011173 -0.22500588 0.10000000)
		(0.63687151 -0.23023414 0.10000000)
		(0.65363128 -0.23487179 0.10000000)
		(0.67039106 -0.23890695 0.10000000)
		(0.68715084 -0.24232927 0.10000000)
		(0.70391061 -0.24512995 0.10000000)
		(0.72067039 -0.24730182 0.10000000)
		(0.73743017 -0.24883931 0.10000000)
		(0.75418994 -0.24973846 0.10000000)
		(0.77094972 -0.24999699 0.10000000)
		(0.78770950 -0.24961422 0.10000000)
		(0.80446927 -0.24859113 0.10000000)
		(0.82122905 -0.24693035 0.10000000)
		(0.83798883 -0.24463614 0.10000000)
		(0.85474860 -0.24171438 0.10000000)
		(0.87150838 -0.23817257 0.10000000)
		(0.88826816 -0.23401980 0.10000000)
		(0.90502793 -0.22926672 0.10000000)
		(0.92178771 -0.22392551 0.10000000)
		(0.93854749 -0.21800989 0.10000000)
		(0.95530726 -0.21153502 0.10000000)
		(0.97206704 -0.20451752 0.10000000)
		(0.98882682 -0.19697539 0.10000000)
		(1.00558659 -0.18892797 0.10000000)
		(1.02234637 -0.18039591 0.10000000)
		(1.03910615 -0.17140109 0.10000000)
		(1.05586592 -0.16196659 0.10000000)
		(1.07262570 -0.15211662 0.10000000)
		(1.08938547 -0.14187643 0.10000000)
		(1.10614525 -0.13127229 0.10000000)
		(1.12290503 -0.12033141 0.10000000)
		(1.13966480 -0.10908186 0.10000000)
		(1.15642458 -0.09755249 0.10000000)
		(1.17318436 -0.08577287 0.10000000)
		(1.18994413 -0.07377323 0.10000000)
		(1.20670391 -0.06158434 0.10000000)
		(1.22346369 -0.04923747 0.10000000)
		(1.24022346 -0.03676430 0.10000000)
		(1.25698324 -0.02419682 0.10000000)
		(1.27374302 -0.01156728 0.10000000)
		(1.29050279 0.00109195 0.10000000)
		(1.30726257 0.01374837 0.10000000)
		(1.32402235 0.02636952 0.10000000)
		(1.34078212 0.03892303 0.10000000)
		(1.35754190 0.05137669 0.10000000)
		(1.37430168 0.06369856 0.10000000)
		(1.39106145 0.07585703 0.10000000)
		(1.40782123 0.08782091 0.10000000)
		(1.42458101 0.09955951 0.10000000)
		(1.44134078 0.11104272 0.10000000)
		(1.45810056 0.12224108 0.10000000)
		(1.47486034 0.13312586 0.10000000)
		(1.49162011 0.14366915 0.10000000)
		(1.50837989 0.15384389 0.10000000)
		(1.52513966 0.16362399 0.10000000)
		(1.54189944 0.17298435 0.10000000)
		(1.55865922 0.18190098 0.10000000)
		(1.57541899 0.19035099 0.10000000)
		(1.59217877 0.19831270 0.10000000)
		(1.60893855 0.20576570 0.10000000)
		(1.62569832 0.21269087 0.10000000)
		(1.64245810 0.21907043 0.10000000)
		(1.65921788 0.22488804 0.10000000)
		(1.67597765 0.23012875 0.10000000)
		(1.69273743 0.23477913 0.10000000)
		(1.70949721 0.23882726 0.10000000)
		(1.72625698 0.24226274 0.10000000)
		(1.74301676 0.24507676 0.10000000)
		(1.75977654 0.24726210 0.10000000)
		(1.77653631 0.24881317 0.10000000)
		(1.79329609 0.24972597 0.10000000)
		(1.81005587 0.24999817 0.10000000)
		(1.82681564 0.24962907 0.10000000)
		(1.84357542 0.24861961 0.10000000)
		(1.86033520 0.24697240 0.10000000)
		(1.87709497 0.24469164 0.10000000)
		(1.89385475 0.24178319 0.10000000)
		(1.91061453 0.23825452 0.10000000)
		(1.92737430 0.23411467 0.10000000)
		(1.94413408 0.22937427 0.10000000)
		(1.96089385 0.22404547 0.10000000)
		(1.97765363 0.21814194 0.10000000)
		(1.99441341 0.21167884 0.10000000)
		(2.01117318 0.20467272 0.10000000)
		(2.02793296 0.19714158 0.10000000)
		(2.04469274 0.18910473 0.10000000)
		(2.06145251 0.18058278 0.10000000)
		(2.07821229 0.17159760 0.10000000)
		(2.09497207 0.16217223 0.10000000)
		(2.11173184 0.15233085 0.10000000)
		(2.12849162 0.14209871 0.10000000)
		(2.14525140 0.13150206 0.10000000)
		(2.16201117 0.12056807 0.10000000)
		(2.17877095 0.10932480 0.10000000)
		(2.19553073 0.09780109 0.10000000)
		(2.21229050 0.08602650 0.10000000)
		(2.22905028 0.07403123 0.10000000)
		(2.24581006 0.06184605 0.10000000)
		(2.26256983 0.04950223 0.10000000)
		(2.27932961 0.03703142 0.10000000)
		(2.29608939 0.02446561 0.10000000)
		(2.31284916 0.01183705 0.10000000)
		(2.32960894 -0.00082188 0.10000000)
		(2.34636872 -0.01347870 0.10000000)
		(2.36312849 -0.02610094 0.10000000)
		(2.37988827 -0.03865623 0.10000000)
		(2.39664804 -0.05111236 0.10000000)
		(2.41340782 -0.06343737 0.10000000)
		(2.43016760 -0.07559965 0.10000000)
		(2.44692737 -0.08756800 0.10000000)
		(2.46368715 -0.09931172 0.10000000)
		(2.48044693 -0.11080069 0.10000000)
		(2.49720670 -0.12200542 0.10000000)
		(2.51396648 -0.13289719 0.10000000)
		(2.53072626 -0.14344804 0.10000000)
		(2.54748603 -0.15363092 0.10000000)
		(2.56424581 -0.16341970 0.10000000)
		(2.58100559 -0.17278927 0.10000000)
		(2.59776536 -0.18171561 0.10000000)
		(2.61452514 -0.19017580 0.10000000)
		(2.63128492 -0.19814814 0.10000000)
		(2.64804469 -0.20561220 0.10000000)
		(2.66480447 -0.21254881 0.10000000)
		(2.68156425 -0.21894019 0.10000000)
		(2.69832402 -0.22476994 0.10000000)
		(2.71508380 -0.23002310 0.10000000)
		(2.73184358 -0.23468620 0.10000000)
		(2.74860335 -0.23874728 0.10000000)
		(2.76536313 -0.24219593 0.10000000)
		(2.78212291 -0.24502328 0.10000000)
		(2.79888268 -0.24722210 0.10000000)
		(2.81564246 -0.24878674 0.10000000)
		(2.83240223 -0.24971318 0.10000000)
		(2.84916201 -0.24999906 0.10000000)
		(2.86592179 -0.24964363 0.10000000)
		(2.88268156 -0.24864781 0.10000000)
		(2.89944134 -0.24701416 0.10000000)
		(2.91620112 -0.24474685 0.10000000)
		(2.93296089 -0.24185172 0.10000000)
		(2.95166480 -0.23849128 0.10000000)
		(2.97036872 -0.23548456 0.10000000)
		(2.98907263 -0.23283158 0.10000000)
		(3.00777654 -0.23053233 0.10000000)
		(3.02648045 -0.22858680 0.10000000)
		(3.04518436 -0.22699501 0.10000000)
		(3.06388827 -0.22575696 0.10000000)
		(3.08259218 -0.22487263 0.10000000)
		(3.10129609 -0.22434203 0.10000000)
		(3.12000000 -0.22416516 0.10000000)
		(3.14000000 -0.22416516 0.10000000)
		(3.16000000 -0.22416516 0.10000000)
		(3.18000000 -0.22416516 0.10000000)
		(3.20000000 -0.22416516 0.10000000)
		(3.22000000 -0.22416516 0.10000000)
		(3.24000000 -0.22416516 0.10000000)
		(3.26000000 -0.22416516 0.10000000)
		(3.28000000 -0.22416516 0.10000000)
		(3.30000000 -0.22416516 0.10000000)
		(3.32000000 -0.22416516 0.10000000)
		(3.34000000 -0.22416516 0.10000000)
		(3.36000000 -0.22416516 0.10000000)
		(3.38000000 -0.22416516 0.10000000)
		(3.40000000 -0.22416516 0.10000000)
		(3.42000000 -0.22416516 0.10000000)
		(3.44000000 -0.22416516 0.10000000)
		(3.46000000 -0.22416516 0.10000000)
		(3.48000000 -0.22416516 0.10000000)
		(3.50000000 -0.22416516 0.10000000)
		(3.52000000 -0.22416516 0.10000000)
		(3.54000000 -0.22416516 0.10000000)
		(3.56000000 -0.22416516 0.10000000)
		(3.58000000 -0.22416516 0.10000000)
		(3.60000000 -0.22416516 0.10000000)
		(3.62000000 -0.22416516 0.10000000)
		(3.64000000 -0.22416516 0.10000000)
		(3.66000000 -0.22416516 0.10000000)
		(3.68000000 -0.22416516 0.10000000)
		(3.70000000 -0.22416516 0.10000000)
		(3.72000000 -0.22416516 0.10000000)
		(3.74000000 -0.22416516 0.10000000)
		(3.76000000 -0.22416516 0.10000000)
		(3.78000000 -0.22416516 0.10000000)
		(3.80000000 -0.22416516 0.10000000)
		(3.82000000 -0.22416516 0.10000000)
		(3.84000000 -0.22416516 0.10000000)
		(3.86000000 -0.22416516 0.10000000)
		(3.88000000 -0.22416516 0.10000000)
		(3.90000000 -0.22416516 0.10000000)
		(3.92000000 -0.22416516 0.10000000)
		(3.94000000 -0.22416516 0.10000000)
		(3.96000000 -0.22416516 0.10000000)
		(3.98000000 -0.22416516 0.10000000)
		(4.00000000 -0.22416516 0.10000000)
	)
	polyLine 3 2
	(
		(-1.00000000 0.67120439 0.00000000)
		(-0.98000000 0.66935873 0.00000000)
		(-0.96000000 0.66751308 0.00000000)
		(-0.94000000 0.66566742 0.00000000)
		(-0.92000000 0.66382176 0.00000000)
		(-0.90000000 0.66197611 0.00000000)
		(-0.88000000 0.66013045 0.00000000)
		(-0.86000000 0.65828479 0.00000000)
		(-0.84000000 0.65643914 0.00000000)
		(-0.82000000 0.65459348 0.00000000)
		(-0.80000000 0.65274782 0.00000000)
		(-0.78000000 0.65090217 0.00000000)
		(-0.76000000 0.64905651 0.00000000)
		(-0.74000000 0.64721086 0.00000000)
		(-0.72000000 0.64536520 0.00000000)
		(-0.70000000 0.64351954 0.00000000)
		(-0.68000000 0.64167389 0.00000000)
		(-0.66000000 0.63982823 0.00000000)
		(-0.64000000 0.63798257 0.00000000)
		(-0.62000000 0.63613692 0.00000000)
		(-0.60000000 0.63429126 0.00000000)
		(-0.58000000 0.63244560 0.00000000)
		(-0.56000000 0.63059995 0.00000000)
		(-0.54000000 0.62875429 0.00000000)
		(-0.52000000 0.62690864 0.00000000)
		(-0.50000000 0.62506298 0.00000000)
		(-0.48000000 0.62321732 0.00000000)
		(-0.46000000 0.62137167 0.00000000)
		(-0.44000000 0.61952601 0.00000000)
		(-0.42000000 0.61768035 0.00000000)
		(-0.40000000 0.61583470 0.00000000)
		(-0.38000000 0.61398904 0.00000000)
		(-0.36000000 0.61214338 0.00000000)
		(-0.34000000 0.61029773 0.00000000)
		(-0.32000000 0.60845207 0.00000000)
		(-0.30000000 0.60660642 0.00000000)
		(-0.28000000 0.60476076 0.00000000)
		(-0.26000000 0.60291510 0.00000000)
		(-0.24000000 0.60106945 0.00000000)
		(-0.22000000 0.59922379 0.00000000)
		(-0.20000000 0.59737813 0.00000000)
		(-0.18000000 0.59553248 0.00000000)
		(-0.16000000 0.59368682 0.00000000)
		(-0.14000000 0.59184116 0.00000000)
		(-0.12000000 0.58999551 0.00000000)
		(-0.10000000 0.58814985 0.00000000)
		(-0.08162011 0.58702143 0.00000000)
		(-0.06324022 0.58544391 0.00000000)
		(-0.04486034 0.58341727 0.00000000)
		(-0.02648045 0.58094152 0.00000000)
		(-0.00810056 0.57801666 0.00000000)
		(0.01027933 0.57464270 0.00000000)
		(0.02865922 0.57081962 0.00000000)
		(0.04703911 0.56654743 0.00000000)
		(0.06541899 0.56182613 0.00000000)
		(0.08379888 0.55665573 0.00000000)
		(0.10055866 0.55134569 0.00000000)
		(0.11731844 0.54590394 0.00000000)
		(0.13407821 0.54034443 0.00000000)
		(0.15083799 0.53468144 0.00000000)
		(0.16759777 0.52892947 0.00000000)
		(0.18435754 0.52310330 0.00000000)
		(0.20111732 0.51721786 0.00000000)
		(0.21787709 0.51128826 0.00000000)
		(0.23463687 0.50532969 0.00000000)
		(0.25139665 0.49935746 0.00000000)
		(0.26815642 0.49338687 0.00000000)
		(0.28491620 0.48743325 0.00000000)
		(0.30167598 0.48151186 0.00000000)
		(0.31843575 0.47563790 0.00000000)
		(0.33519553 0.46982644 0.00000000)
		(0.35195531 0.46409238 0.00000000)
		(0.36871508 0.45845042 0.00000000)
		(0.38547486 0.45291505 0.00000000)
		(0.40223464 0.44750047 0.00000000)
		(0.41899441 0.44222056 0.00000000)
		(0.43575419 0.43708886 0.00000000)
		(0.45251397 0.43211855 0.00000000)
		(0.46927374 0.42732236 0.00000000)
		(0.48603352 0.42271261 0.00000000)
		(0.50279330 0.41830112 0.00000000)
		(0.51955307 0.41409921 0.00000000)
		(0.53631285 0.41011765 0.00000000)
		(0.55307263 0.40636666 0.00000000)
		(0.56983240 0.40285586 0.00000000)
		(0.58659218 0.39959425 0.00000000)
		(0.60335196 0.39659021 0.00000000)
		(0.62011173 0.39385143 0.00000000)
		(0.63687151 0.39138495 0.00000000)
		(0.65363128 0.38919710 0.00000000)
		(0.67039106 0.38729347 0.00000000)
		(0.68715084 0.38567897 0.00000000)
		(0.70391061 0.38435772 0.00000000)
		(0.72067039 0.38333312 0.00000000)
		(0.73743017 0.38260780 0.00000000)
		(0.75418994 0.38218361 0.00000000)
		(0.77094972 0.38206165 0.00000000)
		(0.78770950 0.38224223 0.00000000)
		(0.80446927 0.38272488 0.00000000)
		(0.82122905 0.38350836 0.00000000)
		(0.83798883 0.38459068 0.00000000)
		(0.85474860 0.38596904 0.00000000)
		(0.87150838 0.38763992 0.00000000)
		(0.88826816 0.38959903 0.00000000)
		(0.90502793 0.39184134 0.00000000)
		(0.92178771 0.39436111 0.00000000)
		(0.93854749 0.39715185 0.00000000)
		(0.95530726 0.40020643 0.00000000)
		(0.97206704 0.40351700 0.00000000)
		(0.98882682 0.40707507 0.00000000)
		(1.00558659 0.41087151 0.00000000)
		(1.02234637 0.41489659 0.00000000)
		(1.03910615 0.41913998 0.00000000)
		(1.05586592 0.42359079 0.00000000)
		(1.07262570 0.42823760 0.00000000)
		(1.08938547 0.43306851 0.00000000)
		(1.10614525 0.43807110 0.00000000)
		(1.12290503 0.44323256 0.00000000)
		(1.13966480 0.44853964 0.00000000)
		(1.15642458 0.45397873 0.00000000)
		(1.17318436 0.45953587 0.00000000)
		(1.18994413 0.46519681 0.00000000)
		(1.20670391 0.47094703 0.00000000)
		(1.22346369 0.47677177 0.00000000)
		(1.24022346 0.48265611 0.00000000)
		(1.25698324 0.48858493 0.00000000)
		(1.27374302 0.49454303 0.00000000)
		(1.29050279 0.50051514 0.00000000)
		(1.30726257 0.50648592 0.00000000)
		(1.32402235 0.51244006 0.00000000)
		(1.34078212 0.51836229 0.00000000)
		(1.35754190 0.52423742 0.00000000)
		(1.37430168 0.53005038 0.00000000)
		(1.39106145 0.53578624 0.00000000)
		(1.40782123 0.54143031 0.00000000)
		(1.42458101 0.54696810 0.00000000)
		(1.44134078 0.55238541 0.00000000)
		(1.45810056 0.55766834 0.00000000)
		(1.47486034 0.56280333 0.00000000)
		(1.49162011 0.56777722 0.00000000)
		(1.50837989 0.57257725 0.00000000)
		(1.52513966 0.57719110 0.00000000)
		(1.54189944 0.58160694 0.00000000)
		(1.55865922 0.58581344 0.00000000)
		(1.57541899 0.58979981 0.00000000)
		(1.59217877 0.59355582 0.00000000)
		(1.60893855 0.59707184 0.00000000)
		(1.62569832 0.60033885 0.00000000)
		(1.64245810 0.60334847 0.00000000)
		(1.65921788 0.60609297 0.00000000)
		(1.67597765 0.60856533 0.00000000)
		(1.69273743 0.61075919 0.00000000)
		(1.70949721 0.61266893 0.00000000)
		(1.72625698 0.61428965 0.00000000)
		(1.74301676 0.61561719 0.00000000)
		(1.75977654 0.61664814 0.00000000)
		(1.77653631 0.61737987 0.00000000)
		(1.79329609 0.61781049 0.00000000)
		(1.81005587 0.61793891 0.00000000)
		(1.82681564 0.61776478 0.00000000)
		(1.84357542 0.61728856 0.00000000)
		(1.86033520 0.61651147 0.00000000)
		(1.87709497 0.61543550 0.00000000)
		(1.89385475 0.61406342 0.00000000)
		(1.91061453 0.61239873 0.00000000)
		(1.92737430 0.61044572 0.00000000)
		(1.94413408 0.60820940 0.00000000)
		(1.96089385 0.60569549 0.00000000)
		(1.97765363 0.60291044 0.00000000)
		(1.99441341 0.59986141 0.00000000)
		(2.01117318 0.59655622 0.00000000)
		(2.02793296 0.59300333 0.00000000)
		(2.04469274 0.58921187 0.00000000)
		(2.06145251 0.58519157 0.00000000)
		(2.07821229 0.58095273 0.00000000)
		(2.09497207 0.57650622 0.00000000)
		(2.11173184 0.57186346 0.00000000)
		(2.12849162 0.56703636 0.00000000)
		(2.14525140 0.56203729 0.00000000)
		(2.16201117 0.55687908 0.00000000)
		(2.17877095 0.55157497 0.00000000)
		(2.19553073 0.54613855 0.00000000)
		(2.21229050 0.54058378 0.00000000)
		(2.22905028 0.53492490 0.00000000)
		(2.24581006 0.52917644 0.00000000)
		(2.26256983 0.52335312 0.00000000)
		(2.27932961 0.51746991 0.00000000)
		(2.29608939 0.51154188 0.00000000)
		(2.31284916 0.50558424 0.00000000)
		(2.32960894 0.49961227 0.00000000)
		(2.34636872 0.49364130 0.00000000)
		(2.36312849 0.48768664 0.00000000)
		(2.37988827 0.48176357 0.00000000)
		(2.39664804 0.47588728 0.00000000)
		(2.41340782 0.47007284 0.00000000)
		(2.43016760 0.46433518 0.00000000)
		(2.44692737 0.45868900 0.00000000)
		(2.46368715 0.45314879 0.00000000)
		(2.48044693 0.44772877 0.00000000)
		(2.49720670 0.44244283 0.00000000)