/*--------------------------------*- C++ -*----------------------------------*\\
/*--------------------------------*- C++ -*----------------------------------*\\
| =========                 |                                                 |
| \\\\      /  F ield         | OpenFOAM: The Open Source CFD Toolbox           |
|  \\\\    /   O peration     | Version:  v2012                                 |
|   \\\\  /    A nd           | Website:  www.openfoam.com                      |
|    \\\\/     M anipulation  |                                                 |
\\*---------------------------------------------------------------------------*/
FoamFile
{
    version     2.0;
    format      ascii;
    class       dictionary;
    object      blockMeshDict;
}
// * * * * * * * * * * * * * * * * * * * * * * * * * * * * * * * * * * * * * //

scale   0.01;

xmin -1;
xmax 5;
ymin 0;
ymax 0.5;
zmin 0;
zmax 0.1;

vertices
(
    (-1.00000000 0.21717126 0.00000000)
    (4.00000000 -0.00516095 0.00000000)
    (4.00000000 0.49483905 0.00000000)
    (-1.00000000 0.71717126 0.00000000)
    (-1.00000000 0.21717126 0.10000000)
    (4.00000000 -0.00516095 0.10000000)
    (4.00000000 0.49483905 0.10000000)
    (-1.00000000 0.71717126 0.10000000)
);

blocks
(
    hex (0 1 2 3 4 5 6 7) (200 20 1) simpleGrading (1 1 1)
);

edges
(
	polyLine 0 1
	(
		(-1.00000000 0.21717126 0.00000000)
		(-0.98000000 0.21717126 0.00000000)
		(-0.96000000 0.21717126 0.00000000)
		(-0.94000000 0.21717126 0.00000000)
		(-0.92000000 0.21717126 0.00000000)
		(-0.90000000 0.21717126 0.00000000)
		(-0.88000000 0.21717126 0.00000000)
		(-0.86000000 0.21717126 0.00000000)
		(-0.84000000 0.21717126 0.00000000)
		(-0.82000000 0.21717126 0.00000000)
		(-0.80000000 0.21717126 0.00000000)
		(-0.78000000 0.21717126 0.00000000)
		(-0.76000000 0.21717126 0.00000000)
		(-0.74000000 0.21717126 0.00000000)
		(-0.72000000 0.21717126 0.00000000)
		(-0.70000000 0.21717126 0.00000000)
		(-0.68000000 0.21717126 0.00000000)
		(-0.66000000 0.21717126 0.00000000)
		(-0.64000000 0.21717126 0.00000000)
		(-0.62000000 0.21717126 0.00000000)
		(-0.60000000 0.21717126 0.00000000)
		(-0.58000000 0.21717126 0.00000000)
		(-0.56000000 0.21717126 0.00000000)
		(-0.54000000 0.21717126 0.00000000)
		(-0.52000000 0.21717126 0.00000000)
		(-0.50000000 0.21717126 0.00000000)
		(-0.48000000 0.21717126 0.00000000)
		(-0.46000000 0.21717126 0.00000000)
		(-0.44000000 0.21717126 0.00000000)
		(-0.42000000 0.21717126 0.00000000)
		(-0.40000000 0.21717126 0.00000000)
		(-0.38000000 0.21717126 0.00000000)
		(-0.36000000 0.21717126 0.00000000)
		(-0.34000000 0.21717126 0.00000000)
		(-0.32000000 0.21717126 0.00000000)
		(-0.30000000 0.21717126 0.00000000)
		(-0.28000000 0.21717126 0.00000000)
		(-0.26000000 0.21717126 0.00000000)
		(-0.24000000 0.21717126 0.00000000)
		(-0.22000000 0.21717126 0.00000000)
		(-0.20000000 0.21717126 0.00000000)
		(-0.18000000 0.21717126 0.00000000)
		(-0.16000000 0.21717126 0.00000000)
		(-0.14000000 0.21717126 0.00000000)
		(-0.12000000 0.21717126 0.00000000)
		(-0.10000000 0.21717126 0.00000000)
		(-0.08162011 0.21655505 0.00000000)
		(-0.06324022 0.21470640 0.00000000)
		(-0.04486034 0.21162532 0.00000000)
		(-0.02648045 0.20731181 0.00000000)
		(-0.00810056 0.20176588 0.00000000)
		(0.01027933 0.19498751 0.00000000)
		(0.02865922 0.18697671 0.00000000)
		(0.04703911 0.17773348 0.00000000)
		(0.06541899 0.16725781 0.00000000)
		(0.08379888 0.15554972 0.00000000)
		(0.10055866 0.14019958 0.00000000)
		(0.11731844 0.12403581 0.00000000)
		(0.13407821 0.10715220 0.00000000)
		(0.15083799 0.08964675 0.00000000)
		(0.16759777 0.07162103 0.00000000)
		(0.18435754 0.05317967 0.00000000)
		(0.20111732 0.03442969 0.00000000)
		(0.21787709 0.01547989 0.00000000)
		(0.23463687 -0.00355974 0.00000000)
		(0.25139665 -0.02257871 0.00000000)
		(0.26815642 -0.04146665 0.00000000)
		(0.28491620 -0.06011394 0.00000000)
		(0.30167598 -0.07841237 0.00000000)
		(0.31843575 -0.09625573 0.00000000)
		(0.33519553 -0.11354048 0.00000000)
		(0.35195531 -0.13016631 0.00000000)
		(0.36871508 -0.14603673 0.00000000)
		(0.38547486 -0.16105963 0.00000000)
		(0.40223464 -0.17514784 0.00000000)
		(0.41899441 -0.18821959 0.00000000)
		(0.43575419 -0.20019902 0.00000000)
		(0.45251397 -0.21101661 0.00000000)
		(0.46927374 -0.22060958 0.00000000)
		(0.48603352 -0.22892226 0.00000000)
		(0.50279330 -0.23590641 0.00000000)
		(0.51955307 -0.24152149 0.00000000)
		(0.53631285 -0.24573492 0.00000000)
		(0.55307263 -0.24852225 0.00000000)
		(0.56983240 -0.24986730 0.00000000)
		(0.58659218 -0.24976226 0.00000000)
		(0.60335196 -0.24820774 0.00000000)
		(0.62011173 -0.24521277 0.00000000)
		(0.63687151 -0.24079473 0.00000000)
		(0.65363128 -0.23497925 0.00000000)
		(0.67039106 -0.22780008 0.00000000)
		(0.68715084 -0.21929890 0.00000000)
		(0.70391061 -0.20952503 0.00000000)
		(0.72067039 -0.19853520 0.00000000)
		(0.73743017 -0.18639319 0.00000000)
		(0.75418994 -0.17316945 0.00000000)
		(0.77094972 -0.15894074 0.00000000)
		(0.78770950 -0.14378963 0.00000000)
		(0.80446927 -0.12780405 0.00000000)
		(0.82122905 -0.11107677 0.00000000)
		(0.83798883 -0.09370486 0.00000000)
		(0.85474860 -0.07578914 0.00000000)
		(0.87150838 -0.05743358 0.00000000)
		(0.88826816 -0.03874471 0.00000000)
		(0.90502793 -0.01983100 0.00000000)
		(0.92178771 -0.00080219 0.00000000)
		(0.93854749 0.01823127 0.00000000)
		(0.95530726 0.03715893 0.00000000)
		(0.97206704 0.05587094 0.00000000)
		(0.98882682 0.07425871 0.00000000)
		(1.00558659 0.09221552 0.00000000)
		(1.02234637 0.10963716 0.00000000)
		(1.03910615 0.12642254 0.00000000)
		(1.05586592 0.14247423 0.00000000)
		(1.07262570 0.15769908 0.00000000)
		(1.08938547 0.17200874 0.00000000)
		(1.10614525 0.18532016 0.00000000)
		(1.12290503 0.19755608 0.00000000)
		(1.13966480 0.20864551 0.00000000)
		(1.15642458 0.21852407 0.00000000)
		(1.17318436 0.22713445 0.00000000)
		(1.18994413 0.23442667 0.00000000)
		(1.20670391 0.24035841 0.00000000)
		(1.22346369 0.24489526 0.00000000)
		(1.24022346 0.24801087 0.00000000)
		(1.25698324 0.24968716 0.00000000)
		(1.27374302 0.24991442 0.00000000)
		(1.29050279 0.24869132 0.00000000)
		(1.30726257 0.24602495 0.00000000)
		(1.32402235 0.24193080 0.00000000)
		(1.34078212 0.23643262 0.00000000)
		(1.35754190 0.22956232 0.00000000)
		(1.37430168 0.22135978 0.00000000)
		(1.39106145 0.21187259 0.00000000)
		(1.40782123 0.20115581 0.00000000)
		(1.42458101 0.18927164 0.00000000)
		(1.44134078 0.17628905 0.00000000)
		(1.45810056 0.16228338 0.00000000)
		(1.47486034 0.14733591 0.00000000)
		(1.49162011 0.13153338 0.00000000)
		(1.50837989 0.11496751 0.00000000)
		(1.52513966 0.09773444 0.00000000)
		(1.54189944 0.07993417 0.00000000)
		(1.55865922 0.06167001 0.00000000)
		(1.57541899 0.04304795 0.00000000)
		(1.59217877 0.02417606 0.00000000)
		(1.60893855 0.00516388 0.00000000)
		(1.62569832 -0.01387828 0.00000000)
		(1.64245810 -0.03283989 0.00000000)
		(1.65921788 -0.05161093 0.00000000)
		(1.67597765 -0.07008244 0.00000000)
		(1.69273743 -0.08814723 0.00000000)
		(1.70949721 -0.10570046 0.00000000)
		(1.72625698 -0.12264028 0.00000000)
		(1.74301676 -0.13886835 0.00000000)
		(1.75977654 -0.15429052 0.00000000)
		(1.77653631 -0.16881727 0.00000000)
		(1.79329609 -0.18236431 0.00000000)
		(1.81005587 -0.19485300 0.00000000)
		(1.82681564 -0.20621089 0.00000000)
		(1.84357542 -0.21637204 0.00000000)
		(1.86033520 -0.22527749 0.00000000)
		(1.87709497 -0.23287557 0.00000000)
		(1.89385475 -0.23912216 0.00000000)
		(1.91061453 -0.24398103 0.00000000)
		(1.92737430 -0.24742398 0.00000000)
		(1.94413408 -0.24943102 0.00000000)
		(1.96089385 -0.24999050 0.00000000)
		(1.97765363 -0.24909918 0.00000000)
		(1.99441341 -0.24676224 0.00000000)
		(2.01117318 -0.24299322 0.00000000)
		(2.02793296 -0.23781402 0.00000000)
		(2.04469274 -0.23125468 0.00000000)
		(2.06145251 -0.22335327 0.00000000)
		(2.07821229 -0.21415565 0.00000000)
		(2.09497207 -0.20371519 0.00000000)
		(2.11173184 -0.19209248 0.00000000)
		(2.12849162 -0.17935498 0.00000000)
		(2.14525140 -0.16557661 0.00000000)
		(2.16201117 -0.15083732 0.00000000)
		(2.17877095 -0.13522267 0.00000000)
		(2.19553073 -0.11882326 0.00000000)
		(2.21229050 -0.10173426 0.00000000)
		(2.22905028 -0.08405486 0.00000000)
		(2.24581006 -0.06588765 0.00000000)
		(2.26256983 -0.04733807 0.00000000)
		(2.27932961 -0.02851377 0.00000000)
		(2.29608939 -0.00952399 0.00000000)
		(2.31284916 0.00952106 0.00000000)
		(2.32960894 0.02851086 0.00000000)
		(2.34636872 0.04733520 0.00000000)
		(2.36312849 0.06588483 0.00000000)
		(2.37988827 0.08405210 0.00000000)
		(2.39664804 0.10173159 0.00000000)
		(2.41340782 0.11882068 0.00000000)
		(2.43016760 0.13522021 0.00000000)
		(2.44692737 0.15083499 0.00000000)
		(2.46368715 0.16557442 0.00000000)
		(2.48044693 0.17935294 0.00000000)
		(2.49720670 0.19209061 0.00000000)
		(2.51396648 0.20371349 0.00000000)
		(2.53072626 0.21415414 0.00000000)
		(2.54748603 0.22335195 0.00000000)
		(2.56424581 0.23125357 0.00000000)
		(2.58100559 0.23781312 0.00000000)
		(2.59776536 0.24299254 0.00000000)
		(2.61452514 0.24676177 0.00000000)
		(2.63128492 0.24909893 0.00000000)
		(2.64804469 0.24999047 0.00000000)
		(2.66480447 0.24943121 0.00000000)
		(2.68156425 0.24742440 0.00000000)
		(2.69832402 0.24398167 0.00000000)
		(2.71508380 0.23912302 0.00000000)
		(2.73184358 0.23287663 0.00000000)
		(2.74860335 0.22527876 0.00000000)
		(2.76536313 0.21637351 0.00000000)
		(2.78212291 0.20621254 0.00000000)
		(2.79888268 0.19485484 0.00000000)
		(2.81564246 0.18236631 0.00000000)
		(2.83240223 0.16881943 0.00000000)
		(2.84916201 0.15429282 0.00000000)
		(2.86592179 0.13887079 0.00000000)
		(2.88268156 0.12264283 0.00000000)
		(2.89944134 0.10570312 0.00000000)
		(2.91620112 0.08814997 0.00000000)
		(2.93296089 0.07008525 0.00000000)
		(2.95166480 0.05578847 0.00000000)
		(2.97036872 0.04299662 0.00000000)
		(2.98907263 0.03170969 0.00000000)
		(3.00777654 0.02192768 0.00000000)
		(3.02648045 0.01365060 0.00000000)
		(3.04518436 0.00687844 0.00000000)
		(3.06388827 0.00161121 0.00000000)
		(3.08259218 -0.00215110 0.00000000)
		(3.10129609 -0.00440849 0.00000000)
		(3.12000000 -0.00516095 0.00000000)
		(3.14000000 -0.00516095 0.00000000)
		(3.16000000 -0.00516095 0.00000000)
		(3.18000000 -0.00516095 0.00000000)
		(3.20000000 -0.00516095 0.00000000)
		(3.22000000 -0.00516095 0.00000000)
		(3.24000000 -0.00516095 0.00000000)
		(3.26000000 -0.00516095 0.00000000)
		(3.28000000 -0.00516095 0.00000000)
		(3.30000000 -0.00516095 0.00000000)
		(3.32000000 -0.00516095 0.00000000)
		(3.34000000 -0.00516095 0.00000000)
		(3.36000000 -0.00516095 0.00000000)
		(3.38000000 -0.00516095 0.00000000)
		(3.40000000 -0.00516095 0.00000000)
		(3.42000000 -0.00516095 0.00000000)
		(3.44000000 -0.00516095 0.00000000)
		(3.46000000 -0.00516095 0.00000000)
		(3.48000000 -0.00516095 0.00000000)
		(3.50000000 -0.00516095 0.00000000)
		(3.52000000 -0.00516095 0.00000000)
		(3.54000000 -0.00516095 0.00000000)
		(3.56000000 -0.00516095 0.00000000)
		(3.58000000 -0.00516095 0.00000000)
		(3.60000000 -0.00516095 0.00000000)
		(3.62000000 -0.00516095 0.00000000)
		(3.64000000 -0.00516095 0.00000000)
		(3.66000000 -0.00516095 0.00000000)
		(3.68000000 -0.00516095 0.00000000)
		(3.70000000 -0.00516095 0.00000000)
		(3.72000000 -0.00516095 0.00000000)
		(3.74000000 -0.00516095 0.00000000)
		(3.76000000 -0.00516095 0.00000000)
		(3.78000000 -0.00516095 0.00000000)
		(3.80000000 -0.00516095 0.00000000)
		(3.82000000 -0.00516095 0.00000000)
		(3.84000000 -0.00516095 0.00000000)
		(3.86000000 -0.00516095 0.00000000)
		(3.88000000 -0.00516095 0.00000000)
		(3.90000000 -0.00516095 0.00000000)
		(3.92000000 -0.00516095 0.00000000)
		(3.94000000 -0.00516095 0.00000000)
		(3.96000000 -0.00516095 0.00000000)
		(3.98000000 -0.00516095 0.00000000)
		(4.00000000 -0.00516095 0.00000000)
	)
	polyLine 4 5
	(
		(-1.00000000 0.21717126 0.10000000)
		(-0.98000000 0.21717126 0.10000000)
		(-0.96000000 0.21717126 0.10000000)
		(-0.94000000 0.21717126 0.10000000)
		(-0.92000000 0.21717126 0.10000000)
		(-0.90000000 0.21717126 0.10000000)
		(-0.88000000 0.21717126 0.10000000)
		(-0.86000000 0.21717126 0.10000000)
		(-0.84000000 0.21717126 0.10000000)
		(-0.82000000 0.21717126 0.10000000)
		(-0.80000000 0.21717126 0.10000000)
		(-0.78000000 0.21717126 0.10000000)
		(-0.76000000 0.21717126 0.10000000)
		(-0.74000000 0.21717126 0.10000000)
		(-0.72000000 0.21717126 0.10000000)
		(-0.70000000 0.21717126 0.10000000)
		(-0.68000000 0.21717126 0.10000000)
		(-0.66000000 0.21717126 0.10000000)
		(-0.64000000 0.21717126 0.10000000)
		(-0.62000000 0.21717126 0.10000000)
		(-0.60000000 0.21717126 0.10000000)
		(-0.58000000 0.21717126 0.10000000)
		(-0.56000000 0.21717126 0.10000000)
		(-0.54000000 0.21717126 0.10000000)
		(-0.52000000 0.21717126 0.10000000)
		(-0.50000000 0.21717126 0.10000000)
		(-0.48000000 0.21717126 0.10000000)
		(-0.46000000 0.21717126 0.10000000)
		(-0.44000000 0.21717126 0.10000000)
		(-0.42000000 0.21717126 0.10000000)
		(-0.40000000 0.21717126 0.10000000)
		(-0.38000000 0.21717126 0.10000000)
		(-0.36000000 0.21717126 0.10000000)
		(-0.34000000 0.21717126 0.10000000)
		(-0.32000000 0.21717126 0.10000000)
		(-0.30000000 0.21717126 0.10000000)
		(-0.28000000 0.21717126 0.10000000)
		(-0.26000000 0.21717126 0.10000000)
		(-0.24000000 0.21717126 0.10000000)
		(-0.22000000 0.21717126 0.10000000)
		(-0.20000000 0.21717126 0.10000000)
		(-0.18000000 0.21717126 0.10000000)
		(-0.16000000 0.21717126 0.10000000)
		(-0.14000000 0.21717126 0.10000000)
		(-0.12000000 0.21717126 0.10000000)
		(-0.10000000 0.21717126 0.10000000)
		(-0.08162011 0.21655505 0.10000000)
		(-0.06324022 0.21470640 0.10000000)
		(-0.04486034 0.21162532 0.10000000)
		(-0.02648045 0.20731181 0.10000000)
		(-0.00810056 0.20176588 0.10000000)
		(0.01027933 0.19498751 0.10000000)
		(0.02865922 0.18697671 0.10000000)
		(0.04703911 0.17773348 0.10000000)
		(0.06541899 0.16725781 0.10000000)
		(0.08379888 0.15554972 0.10000000)
		(0.10055866 0.14019958 0.10000000)
		(0.11731844 0.12403581 0.10000000)
		(0.13407821 0.10715220 0.10000000)
		(0.15083799 0.08964675 0.10000000)
		(0.16759777 0.07162103 0.10000000)
		(0.18435754 0.05317967 0.10000000)
		(0.20111732 0.03442969 0.10000000)
		(0.21787709 0.01547989 0.10000000)
		(0.23463687 -0.00355974 0.10000000)
		(0.25139665 -0.02257871 0.10000000)
		(0.26815642 -0.04146665 0.10000000)
		(0.28491620 -0.06011394 0.10000000)
		(0.30167598 -0.07841237 0.10000000)
		(0.31843575 -0.09625573 0.10000000)
		(0.33519553 -0.11354048 0.10000000)
		(0.35195531 -0.13016631 0.10000000)
		(0.36871508 -0.14603673 0.10000000)
		(0.38547486 -0.16105963 0.10000000)
		(0.40223464 -0.17514784 0.10000000)
		(0.41899441 -0.18821959 0.10000000)
		(0.43575419 -0.20019902 0.10000000)
		(0.45251397 -0.21101661 0.10000000)
		(0.46927374 -0.22060958 0.10000000)
		(0.48603352 -0.22892226 0.10000000)
		(0.50279330 -0.23590641 0.10000000)
		(0.51955307 -0.24152149 0.10000000)
		(0.53631285 -0.24573492 0.10000000)
		(0.55307263 -0.24852225 0.10000000)
		(0.56983240 -0.24986730 0.10000000)
		(0.58659218 -0.24976226 0.10000000)
		(0.60335196 -0.24820774 0.10000000)
		(0.62011173 -0.24521277 0.10000000)
		(0.63687151 -0.24079473 0.10000000)
		(0.65363128 -0.23497925 0.10000000)
		(0.67039106 -0.22780008 0.10000000)
		(0.68715084 -0.21929890 0.10000000)
		(0.70391061 -0.20952503 0.10000000)
		(0.72067039 -0.19853520 0.10000000)
		(0.73743017 -0.18639319 0.10000000)
		(0.75418994 -0.17316945 0.10000000)
		(0.77094972 -0.15894074 0.10000000)
		(0.78770950 -0.14378963 0.10000000)
		(0.80446927 -0.12780405 0.10000000)
		(0.82122905 -0.11107677 0.10000000)
		(0.83798883 -0.09370486 0.10000000)
		(0.85474860 -0.07578914 0.10000000)
		(0.87150838 -0.05743358 0.10000000)
		(0.88826816 -0.03874471 0.10000000)
		(0.90502793 -0.01983100 0.10000000)
		(0.92178771 -0.00080219 0.10000000)
		(0.93854749 0.01823127 0.10000000)
		(0.95530726 0.03715893 0.10000000)
		(0.97206704 0.05587094 0.10000000)
		(0.98882682 0.07425871 0.10000000)
		(1.00558659 0.09221552 0.10000000)
		(1.02234637 0.10963716 0.10000000)
		(1.03910615 0.12642254 0.10000000)
		(1.05586592 0.14247423 0.10000000)
		(1.07262570 0.15769908 0.10000000)
		(1.08938547 0.17200874 0.10000000)
		(1.10614525 0.18532016 0.10000000)
		(1.12290503 0.19755608 0.10000000)
		(1.13966480 0.20864551 0.10000000)
		(1.15642458 0.21852407 0.10000000)
		(1.17318436 0.22713445 0.10000000)
		(1.18994413 0.23442667 0.10000000)
		(1.20670391 0.24035841 0.10000000)
		(1.22346369 0.24489526 0.10000000)
		(1.24022346 0.24801087 0.10000000)
		(1.25698324 0.24968716 0.10000000)
		(1.27374302 0.24991442 0.10000000)
		(1.29050279 0.24869132 0.10000000)
		(1.30726257 0.24602495 0.10000000)
		(1.32402235 0.24193080 0.10000000)
		(1.34078212 0.23643262 0.10000000)
		(1.35754190 0.22956232 0.10000000)
		(1.37430168 0.22135978 0.10000000)
		(1.39106145 0.21187259 0.10000000)
		(1.40782123 0.20115581 0.10000000)
		(1.42458101 0.18927164 0.10000000)
		(1.44134078 0.17628905 0.10000000)
		(1.45810056 0.16228338 0.10000000)
		(1.47486034 0.14733591 0.10000000)
		(1.49162011 0.13153338 0.10000000)
		(1.50837989 0.11496751 0.10000000)
		(1.52513966 0.09773444 0.10000000)
		(1.54189944 0.07993417 0.10000000)
		(1.55865922 0.06167001 0.10000000)
		(1.57541899 0.04304795 0.10000000)
		(1.59217877 0.02417606 0.10000000)
		(1.60893855 0.00516388 0.10000000)
		(1.62569832 -0.01387828 0.10000000)
		(1.64245810 -0.03283989 0.10000000)
		(1.65921788 -0.05161093 0.10000000)
		(1.67597765 -0.07008244 0.10000000)
		(1.69273743 -0.08814723 0.10000000)
		(1.70949721 -0.10570046 0.10000000)
		(1.72625698 -0.12264028 0.10000000)
		(1.74301676 -0.13886835 0.10000000)
		(1.75977654 -0.15429052 0.10000000)
		(1.77653631 -0.16881727 0.10000000)
		(1.79329609 -0.18236431 0.10000000)
		(1.81005587 -0.19485300 0.10000000)
		(1.82681564 -0.20621089 0.10000000)
		(1.84357542 -0.21637204 0.10000000)
		(1.86033520 -0.22527749 0.10000000)
		(1.87709497 -0.23287557 0.10000000)
		(1.89385475 -0.23912216 0.10000000)
		(1.91061453 -0.24398103 0.10000000)
		(1.92737430 -0.24742398 0.10000000)
		(1.94413408 -0.24943102 0.10000000)
		(1.96089385 -0.24999050 0.10000000)
		(1.97765363 -0.24909918 0.10000000)
		(1.99441341 -0.24676224 0.10000000)
		(2.01117318 -0.24299322 0.10000000)
		(2.02793296 -0.23781402 0.10000000)
		(2.04469274 -0.23125468 0.10000000)
		(2.06145251 -0.22335327 0.10000000)
		(2.07821229 -0.21415565 0.10000000)
		(2.09497207 -0.20371519 0.10000000)
		(2.11173184 -0.19209248 0.10000000)
		(2.12849162 -0.17935498 0.10000000)
		(2.14525140 -0.16557661 0.10000000)
		(2.16201117 -0.15083732 0.10000000)
		(2.17877095 -0.13522267 0.10000000)
		(2.19553073 -0.11882326 0.10000000)
		(2.21229050 -0.10173426 0.10000000)
		(2.22905028 -0.08405486 0.10000000)
		(2.24581006 -0.06588765 0.10000000)
		(2.26256983 -0.04733807 0.10000000)
		(2.27932961 -0.02851377 0.10000000)
		(2.29608939 -0.00952399 0.10000000)
		(2.31284916 0.00952106 0.10000000)
		(2.32960894 0.02851086 0.10000000)
		(2.34636872 0.04733520 0.10000000)
		(2.36312849 0.06588483 0.10000000)
		(2.37988827 0.08405210 0.10000000)
		(2.39664804 0.10173159 0.10000000)
		(2.41340782 0.11882068 0.10000000)
		(2.43016760 0.13522021 0.10000000)
		(2.44692737 0.15083499 0.10000000)
		(2.46368715 0.16557442 0.10000000)
		(2.48044693 0.17935294 0.10000000)
		(2.49720670 0.19209061 0.10000000)
		(2.51396648 0.20371349 0.10000000)
		(2.53072626 0.21415414 0.10000000)
		(2.54748603 0.22335195 0.10000000)
		(2.56424581 0.23125357 0.10000000)
		(2.58100559 0.23781312 0.10000000)
		(2.59776536 0.24299254 0.10000000)
		(2.61452514 0.24676177 0.10000000)
		(2.63128492 0.24909893 0.10000000)
		(2.64804469 0.24999047 0.10000000)
		(2.66480447 0.24943121 0.10000000)
		(2.68156425 0.24742440 0.10000000)
		(2.69832402 0.24398167 0.10000000)
		(2.71508380 0.23912302 0.10000000)
		(2.73184358 0.23287663 0.10000000)
		(2.74860335 0.22527876 0.10000000)
		(2.76536313 0.21637351 0.10000000)
		(2.78212291 0.20621254 0.10000000)
		(2.79888268 0.19485484 0.10000000)
		(2.81564246 0.18236631 0.10000000)
		(2.83240223 0.16881943 0.10000000)
		(2.84916201 0.15429282 0.10000000)
		(2.86592179 0.13887079 0.10000000)
		(2.88268156 0.12264283 0.10000000)
		(2.89944134 0.10570312 0.10000000)
		(2.91620112 0.08814997 0.10000000)
		(2.93296089 0.07008525 0.10000000)
		(2.95166480 0.05578847 0.10000000)
		(2.97036872 0.04299662 0.10000000)
		(2.98907263 0.03170969 0.10000000)
		(3.00777654 0.02192768 0.10000000)
		(3.02648045 0.01365060 0.10000000)
		(3.04518436 0.00687844 0.10000000)
		(3.06388827 0.00161121 0.10000000)
		(3.08259218 -0.00215110 0.10000000)
		(3.10129609 -0.00440849 0.10000000)
		(3.12000000 -0.00516095 0.10000000)
		(3.14000000 -0.00516095 0.10000000)
		(3.16000000 -0.00516095 0.10000000)
		(3.18000000 -0.00516095 0.10000000)
		(3.20000000 -0.00516095 0.10000000)
		(3.22000000 -0.00516095 0.10000000)
		(3.24000000 -0.00516095 0.10000000)
		(3.26000000 -0.00516095 0.10000000)
		(3.28000000 -0.00516095 0.10000000)
		(3.30000000 -0.00516095 0.10000000)
		(3.32000000 -0.00516095 0.10000000)
		(3.34000000 -0.00516095 0.10000000)
		(3.36000000 -0.00516095 0.10000000)
		(3.38000000 -0.00516095 0.10000000)
		(3.40000000 -0.00516095 0.10000000)
		(3.42000000 -0.00516095 0.10000000)
		(3.44000000 -0.00516095 0.10000000)
		(3.46000000 -0.00516095 0.10000000)
		(3.48000000 -0.00516095 0.10000000)
		(3.50000000 -0.00516095 0.10000000)
		(3.52000000 -0.00516095 0.10000000)
		(3.54000000 -0.00516095 0.10000000)
		(3.56000000 -0.00516095 0.10000000)
		(3.58000000 -0.00516095 0.10000000)
		(3.60000000 -0.00516095 0.10000000)
		(3.62000000 -0.00516095 0.10000000)
		(3.64000000 -0.00516095 0.10000000)
		(3.66000000 -0.00516095 0.10000000)
		(3.68000000 -0.00516095 0.10000000)
		(3.70000000 -0.00516095 0.10000000)
		(3.72000000 -0.00516095 0.10000000)
		(3.74000000 -0.00516095 0.10000000)
		(3.76000000 -0.00516095 0.10000000)
		(3.78000000 -0.00516095 0.10000000)
		(3.80000000 -0.00516095 0.10000000)
		(3.82000000 -0.00516095 0.10000000)
		(3.84000000 -0.00516095 0.10000000)
		(3.86000000 -0.00516095 0.10000000)
		(3.88000000 -0.00516095 0.10000000)
		(3.90000000 -0.00516095 0.10000000)
		(3.92000000 -0.00516095 0.10000000)
		(3.94000000 -0.00516095 0.10000000)
		(3.96000000 -0.00516095 0.10000000)
		(3.98000000 -0.00516095 0.10000000)
		(4.00000000 -0.00516095 0.10000000)
	)
	polyLine 3 2
	(
		(-1.00000000 0.71717126 0.00000000)
		(-0.98000000 0.71708497 0.00000000)
		(-0.96000000 0.71699867 0.00000000)
		(-0.94000000 0.71691238 0.00000000)
		(-0.92000000 0.71682609 0.00000000)
		(-0.90000000 0.71673979 0.00000000)
		(-0.88000000 0.71665350 0.00000000)
		(-0.86000000 0.71656721 0.00000000)
		(-0.84000000 0.71648091 0.00000000)
		(-0.82000000 0.71639462 0.00000000)
		(-0.80000000 0.71630833 0.00000000)
		(-0.78000000 0.71622203 0.00000000)
		(-0.76000000 0.71613574 0.00000000)
		(-0.74000000 0.71604945 0.00000000)
		(-0.72000000 0.71596315 0.00000000)
		(-0.70000000 0.71587686 0.00000000)
		(-0.68000000 0.71579057 0.00000000)
		(-0.66000000 0.71570427 0.00000000)
		(-0.64000000 0.71561798 0.00000000)
		(-0.62000000 0.71553169 0.00000000)
		(-0.60000000 0.71544539 0.00000000)
		(-0.58000000 0.71535910 0.00000000)
		(-0.56000000 0.71527281 0.00000000)
		(-0.54000000 0.71518651 0.00000000)
		(-0.52000000 0.71510022 0.00000000)
		(-0.50000000 0.71501393 0.00000000)
		(-0.48000000 0.71492763 0.00000000)
		(-0.46000000 0.71484134 0.00000000)
		(-0.44000000 0.71475505 0.00000000)
		(-0.42000000 0.71466875 0.00000000)
		(-0.40000000 0.71458246 0.00000000)
		(-0.38000000 0.71449617 0.00000000)
		(-0.36000000 0.71440987 0.00000000)
		(-0.34000000 0.71432358 0.00000000)
		(-0.32000000 0.71423728 0.00000000)
		(-0.30000000 0.71415099 0.00000000)
		(-0.28000000 0.71406470 0.00000000)
		(-0.26000000 0.71397840 0.00000000)
		(-0.24000000 0.71389211 0.00000000)
		(-0.22000000 0.71380582 0.00000000)
		(-0.20000000 0.71371952 0.00000000)
		(-0.18000000 0.71363323 0.00000000)
		(-0.16000000 0.71354694 0.00000000)
		(-0.14000000 0.71346064 0.00000000)
		(-0.12000000 0.71337435 0.00000000)
		(-0.10000000 0.71328806 0.00000000)
		(-0.08162011 0.71363229 0.00000000)
		(-0.06324022 0.71254965 0.00000000)
		(-0.04486034 0.71004014 0.00000000)
		(-0.02648045 0.70610375 0.00000000)
		(-0.00810056 0.70074050 0.00000000)
		(0.01027933 0.69395037 0.00000000)
		(0.02865922 0.68573337 0.00000000)
		(0.04703911 0.67608949 0.00000000)
		(0.06541899 0.66501875 0.00000000)
		(0.08379888 0.65252113 0.00000000)
		(0.10055866 0.63746986 0.00000000)
		(0.11731844 0.62162080 0.00000000)
		(0.13407821 0.60506593 0.00000000)
		(0.15083799 0.58790130 0.00000000)
		(0.16759777 0.57022656 0.00000000)
		(0.18435754 0.55214425 0.00000000)
		(0.20111732 0.53375933 0.00000000)
		(0.21787709 0.51517849 0.00000000)
		(0.23463687 0.49650957 0.00000000)
		(0.25139665 0.47786090 0.00000000)
		(0.26815642 0.45934071 0.00000000)
		(0.28491620 0.44105649 0.00000000)
		(0.30167598 0.42311434 0.00000000)
		(0.31843575 0.40561839 0.00000000)
		(0.33519553 0.38867018 0.00000000)
		(0.35195531 0.37236806 0.00000000)
		(0.36871508 0.35680664 0.00000000)
		(0.38547486 0.34207624 0.00000000)
		(0.40223464 0.32826233 0.00000000)
		(0.41899441 0.31544509 0.00000000)
		(0.43575419 0.30369891 0.00000000)
		(0.45251397 0.29309194 0.00000000)
		(0.46927374 0.28368574 0.00000000)
		(0.48603352 0.27553491 0.00000000)
		(0.50279330 0.26868675 0.00000000)
		(0.51955307 0.26318099 0.00000000)
		(0.53631285 0.25904959 0.00000000)
		(0.55307263 0.25631654 0.00000000)
		(0.56983240 0.25499768 0.00000000)
		(0.58659218 0.25510067 0.00000000)
		(0.60335196 0.25662492 0.00000000)
		(0.62011173 0.25956158 0.00000000)
		(0.63687151 0.26389361 0.00000000)
		(0.65363128 0.26959586 0.00000000)
		(0.67039106 0.27663524 0.00000000)
		(0.68715084 0.28497090 0.00000000)
		(0.70391061 0.29455447 0.00000000)
		(0.72067039 0.30533033 0.00000000)
		(0.73743017 0.31723593 0.00000000)
		(0.75418994 0.33020220 0.00000000)
		(0.77094972 0.34415387 0.00000000)
		(0.78770950 0.35900999 0.00000000)
		(0.80446927 0.37468433 0.00000000)
		(0.82122905 0.39108593 0.00000000)
		(0.83798883 0.40811960 0.00000000)
		(0.85474860 0.42568650 0.00000000)
		(0.87150838 0.44368466 0.00000000)
		(0.88826816 0.46200965 0.00000000)
		(0.90502793 0.48055512 0.00000000)
		(0.92178771 0.49921343 0.00000000)
		(0.93854749 0.51787630 0.00000000)
		(0.95530726 0.53643544 0.00000000)
		(0.97206704 0.55478312 0.00000000)
		(0.98882682 0.57281287 0.00000000)
		(1.00558659 0.59042006 0.00000000)
		(1.02234637 0.60750250 0.00000000)
		(1.03910615 0.62396106 0.00000000)
		(1.05586592 0.63970022 0.00000000)
		(1.07262570 0.65462864 0.00000000)
		(1.08938547 0.66865969 0.00000000)
		(1.10614525 0.68171193 0.00000000)
		(1.12290503 0.69370962 0.00000000)
		(1.13966480 0.70458313 0.00000000)
		(1.15642458 0.71426936 0.00000000)
		(1.17318436 0.72271209 0.00000000)
		(1.18994413 0.72986233 0.00000000)
		(1.20670391 0.73567858 0.00000000)
		(1.22346369 0.74012709 0.00000000)
		(1.24022346 0.74318203 0.00000000)
		(1.25698324 0.74482569 0.00000000)
		(1.27374302 0.74504852 0.00000000)
		(1.29050279 0.74384924 0.00000000)
		(1.30726257 0.74123479 0.00000000)
		(1.32402235 0.73722035 0.00000000)
		(1.34078212 0.73182922 0.00000000)
		(1.35754190 0.72509269 0.00000000)
		(1.37430168 0.71704985 0.00000000)
		(1.39106145 0.70774738 0.00000000)
		(1.40782123 0.69723926 0.00000000)
		(1.42458101 0.68558648 0.00000000)
		(1.44134078 0.67285666 0.00000000)
		(1.45810056 0.65912368 0.00000000)
		(1.47486034 0.64446724 0.00000000)
		(1.49162011 0.62897239 0.00000000)
		(1.50837989 0.61272907 0.00000000)
		(1.52513966 0.59583152 0.00000000)
		(1.54189944 0.57837783 0.00000000)
		(1.55865922 0.56046928 0.00000000)
		(1.57541899 0.54220979 0.00000000)
		(1.59217877 0.52370535 0.00000000)
		(1.60893855 0.50506333 0.00000000)
		(1.62569832 0.48639193 0.00000000)
		(1.64245810 0.46779951 0.00000000)
		(1.65921788 0.44939395 0.00000000)
		(1.67597765 0.43128209 0.00000000)
		(1.69273743 0.41356902 0.00000000)
		(1.70949721 0.39635755 0.00000000)
		(1.72625698 0.37974756 0.00000000)
		(1.74301676 0.36383545 0.00000000)
		(1.75977654 0.34871355 0.00000000)
		(1.77653631 0.33446964 0.00000000)
		(1.79329609 0.32118637 0.00000000)
		(1.81005587 0.30894083 0.00000000)
		(1.82681564 0.29780409 0.00000000)
		(1.84357542 0.28784078 0.00000000)
		(1.86033520 0.27910871 0.00000000)
		(1.87709497 0.27165858 0.00000000)
		(1.89385475 0.26553360 0.00000000)
		(1.91061453 0.26076934 0.00000000)
		(1.92737430 0.25739343 0.00000000)
		(1.94413408 0.25542547 0.00000000)
		(1.96089385 0.25487688 0.00000000)
		(1.97765363 0.25575084 0.00000000)
		(1.99441341 0.25804228 0.00000000)
		(2.01117318 0.26173791 0.00000000)
		(2.02793296 0.26681628 0.00000000)
		(2.04469274 0.27324791 0.00000000)
		(2.06145251 0.28099547 0.00000000)
		(2.07821229 0.29001402 0.00000000)
		(2.09497207 0.30025120 0.00000000)
		(2.11173184 0.31164761 0.00000000)
		(2.12849162 0.32413710 0.00000000)
		(2.14525140 0.33764721 0.00000000)
		(2.16201117 0.35209951 0.00000000)
		(2.17877095 0.36741015 0.00000000)
		(2.19553073 0.38349026 0.00000000)
		(2.21229050 0.40024653 0.00000000)
		(2.22905028 0.41758171 0.00000000)
		(2.24581006 0.43539519 0.00000000)
		(2.26256983 0.45358361 0.00000000)
		(2.27932961 0.47204140 0.00000000)
		(2.29608939 0.49066145 0.00000000)
		(2.31284916 0.50933569 0.00000000)
		(2.32960894 0.52795575 0.00000000)
		(2.34636872 0.54641357 0.00000000)
		(2.36312849 0.56460204 0.00000000)
		(2.37988827 0.58241559 0.00000000)
		(2.39664804 0.59975085 0.00000000)
		(2.41340782 0.61650721 0.00000000)
		(2.43016760 0.63258744 0.00000000)
		(2.44692737 0.64789820 0.00000000)
		(2.46368715 0.66235064 0.00000000)
		(2.48044693 0.67586090 0.00000000)
		(2.49720670 0.68835056 0.00000000)
		(2.51396648 0.69974714 0.00000000)
		(2.53072626 0.70998450 0.00000000)