/*--------------------------------*- C++ -*----------------------------------*\\
/*--------------------------------*- C++ -*----------------------------------*\\
| =========                 |                                                 |
| \\\\      /  F ield         | OpenFOAM: The Open Source CFD Toolbox           |
|  \\\\    /   O peration     | Version:  v2012                                 |
|   \\\\  /    A nd           | Website:  www.openfoam.com                      |
|    \\\\/     M anipulation  |                                                 |
\\*---------------------------------------------------------------------------*/
FoamFile
{
    version     2.0;
    format      ascii;
    class       dictionary;
    object      blockMeshDict;
}
// * * * * * * * * * * * * * * * * * * * * * * * * * * * * * * * * * * * * * //

scale   0.01;

xmin -1;
xmax 5;
ymin 0;
ymax 0.5;
zmin 0;
zmax 0.1;

vertices
(
    (-1.00000000 -0.24972538 0.00000000)
    (4.00000000 0.24525059 0.00000000)
    (4.00000000 0.74525059 0.00000000)
    (-1.00000000 0.25027462 0.00000000)
    (-1.00000000 -0.24972538 0.10000000)
    (4.00000000 0.24525059 0.10000000)
    (4.00000000 0.74525059 0.10000000)
    (-1.00000000 0.25027462 0.10000000)
);

blocks
(
    hex (0 1 2 3 4 5 6 7) (200 20 1) simpleGrading (1 1 1)
);

edges
(
	polyLine 0 1
	(
		(-1.00000000 -0.24972538 0.00000000)
		(-0.98000000 -0.24972538 0.00000000)
		(-0.96000000 -0.24972538 0.00000000)
		(-0.94000000 -0.24972538 0.00000000)
		(-0.92000000 -0.24972538 0.00000000)
		(-0.90000000 -0.24972538 0.00000000)
		(-0.88000000 -0.24972538 0.00000000)
		(-0.86000000 -0.24972538 0.00000000)
		(-0.84000000 -0.24972538 0.00000000)
		(-0.82000000 -0.24972538 0.00000000)
		(-0.80000000 -0.24972538 0.00000000)
		(-0.78000000 -0.24972538 0.00000000)
		(-0.76000000 -0.24972538 0.00000000)
		(-0.74000000 -0.24972538 0.00000000)
		(-0.72000000 -0.24972538 0.00000000)
		(-0.70000000 -0.24972538 0.00000000)
		(-0.68000000 -0.24972538 0.00000000)
		(-0.66000000 -0.24972538 0.00000000)
		(-0.64000000 -0.24972538 0.00000000)
		(-0.62000000 -0.24972538 0.00000000)
		(-0.60000000 -0.24972538 0.00000000)
		(-0.58000000 -0.24972538 0.00000000)
		(-0.56000000 -0.24972538 0.00000000)
		(-0.54000000 -0.24972538 0.00000000)
		(-0.52000000 -0.24972538 0.00000000)
		(-0.50000000 -0.24972538 0.00000000)
		(-0.48000000 -0.24972538 0.00000000)
		(-0.46000000 -0.24972538 0.00000000)
		(-0.44000000 -0.24972538 0.00000000)
		(-0.42000000 -0.24972538 0.00000000)
		(-0.40000000 -0.24972538 0.00000000)
		(-0.38000000 -0.24972538 0.00000000)
		(-0.36000000 -0.24972538 0.00000000)
		(-0.34000000 -0.24972538 0.00000000)
		(-0.32000000 -0.24972538 0.00000000)
		(-0.30000000 -0.24972538 0.00000000)
		(-0.28000000 -0.24972538 0.00000000)
		(-0.26000000 -0.24972538 0.00000000)
		(-0.24000000 -0.24972538 0.00000000)
		(-0.22000000 -0.24972538 0.00000000)
		(-0.20000000 -0.24972538 0.00000000)
		(-0.18000000 -0.24972538 0.00000000)
		(-0.16000000 -0.24972538 0.00000000)
		(-0.14000000 -0.24972538 0.00000000)
		(-0.12000000 -0.24972538 0.00000000)
		(-0.10000000 -0.24972538 0.00000000)
		(-0.08162011 -0.24954253 0.00000000)
		(-0.06324022 -0.24899398 0.00000000)
		(-0.04486034 -0.24807974 0.00000000)
		(-0.02648045 -0.24679981 0.00000000)
		(-0.00810056 -0.24515418 0.00000000)
		(0.01027933 -0.24314285 0.00000000)
		(0.02865922 -0.24076583 0.00000000)
		(0.04703911 -0.23802311 0.00000000)
		(0.06541899 -0.23491469 0.00000000)
		(0.08379888 -0.23144058 0.00000000)
		(0.10055866 -0.22236036 0.00000000)
		(0.11731844 -0.21160105 0.00000000)
		(0.13407821 -0.19924389 0.00000000)
		(0.15083799 -0.18538219 0.00000000)
		(0.16759777 -0.17012063 0.00000000)
		(0.18435754 -0.15357445 0.00000000)
		(0.20111732 -0.13586859 0.00000000)
		(0.21787709 -0.11713676 0.00000000)
		(0.23463687 -0.09752040 0.00000000)
		(0.25139665 -0.07716765 0.00000000)
		(0.26815642 -0.05623218 0.00000000)
		(0.28491620 -0.03487209 0.00000000)
		(0.30167598 -0.01324867 0.00000000)
		(0.31843575 0.00847479 0.00000000)
		(0.33519553 0.03013425 0.00000000)
		(0.35195531 0.05156616 0.00000000)
		(0.36871508 0.07260869 0.00000000)
		(0.38547486 0.09310293 0.00000000)
		(0.40223464 0.11289413 0.00000000)
		(0.41899441 0.13183284 0.00000000)
		(0.43575419 0.14977605 0.00000000)
		(0.45251397 0.16658827 0.00000000)
		(0.46927374 0.18214254 0.00000000)
		(0.48603352 0.19632141 0.00000000)
		(0.50279330 0.20901782 0.00000000)
		(0.51955307 0.22013588 0.00000000)
		(0.53631285 0.22959164 0.00000000)
		(0.55307263 0.23731371 0.00000000)
		(0.56983240 0.24324376 0.00000000)
		(0.58659218 0.24733703 0.00000000)
		(0.60335196 0.24956260 0.00000000)
		(0.62011173 0.24990366 0.00000000)
		(0.63687151 0.24835765 0.00000000)
		(0.65363128 0.24493622 0.00000000)
		(0.67039106 0.23966523 0.00000000)
		(0.68715084 0.23258447 0.00000000)
		(0.70391061 0.22374742 0.00000000)
		(0.72067039 0.21322079 0.00000000)
		(0.73743017 0.20108409 0.00000000)
		(0.75418994 0.18742895 0.00000000)
		(0.77094972 0.17235850 0.00000000)
		(0.78770950 0.15598652 0.00000000)
		(0.80446927 0.13843666 0.00000000)
		(0.82122905 0.11984143 0.00000000)
		(0.83798883 0.10034125 0.00000000)
		(0.85474860 0.08008337 0.00000000)
		(0.87150838 0.05922076 0.00000000)
		(0.88826816 0.03791096 0.00000000)
		(0.90502793 0.01631489 0.00000000)
		(0.92178771 -0.00540438 0.00000000)
		(0.93854749 -0.02708284 0.00000000)
		(0.95530726 -0.04855679 0.00000000)
		(0.97206704 -0.06966408 0.00000000)
		(0.98882682 -0.09024531 0.00000000)
		(1.00558659 -0.11014509 0.00000000)
		(1.02234637 -0.12921313 0.00000000)
		(1.03910615 -0.14730546 0.00000000)
		(1.05586592 -0.16428545 0.00000000)
		(1.07262570 -0.18002488 0.00000000)
		(1.08938547 -0.19440491 0.00000000)
		(1.10614525 -0.20731693 0.00000000)
		(1.12290503 -0.21866346 0.00000000)
		(1.13966480 -0.22835881 0.00000000)
		(1.15642458 -0.23632977 0.00000000)
		(1.17318436 -0.24251616 0.00000000)
		(1.18994413 -0.24687124 0.00000000)
		(1.20670391 -0.24936215 0.00000000)
		(1.22346369 -0.24997006 0.00000000)
		(1.24022346 -0.24869040 0.00000000)
		(1.25698324 -0.24553281 0.00000000)
		(1.27374302 -0.24052115 0.00000000)
		(1.29050279 -0.23369326 0.00000000)
		(1.30726257 -0.22510070 0.00000000)
		(1.32402235 -0.21480835 0.00000000)
		(1.34078212 -0.20289394 0.00000000)
		(1.35754190 -0.18944742 0.00000000)
		(1.37430168 -0.17457035 0.00000000)
		(1.39106145 -0.15837505 0.00000000)
		(1.40782123 -0.14098383 0.00000000)
		(1.42458101 -0.12252801 0.00000000)
		(1.44134078 -0.10314695 0.00000000)
		(1.45810056 -0.08298700 0.00000000)
		(1.47486034 -0.06220040 0.00000000)
		(1.49162011 -0.04094411 0.00000000)
		(1.50837989 -0.01937865 0.00000000)
		(1.52513966 0.00233316 0.00000000)
		(1.54189944 0.02402734 0.00000000)
		(1.55865922 0.04554008 0.00000000)
		(1.57541899 0.06670895 0.00000000)
		(1.59217877 0.08737407 0.00000000)
		(1.60893855 0.10737942 0.00000000)
		(1.62569832 0.12657392 0.00000000)
		(1.64245810 0.14481263 0.00000000)
		(1.65921788 0.16195783 0.00000000)
		(1.67597765 0.17788005 0.00000000)
		(1.69273743 0.19245905 0.00000000)
		(1.70949721 0.20558475 0.00000000)
		(1.72625698 0.21715804 0.00000000)
		(1.74301676 0.22709151 0.00000000)
		(1.75977654 0.23531017 0.00000000)
		(1.77653631 0.24175194 0.00000000)
		(1.79329609 0.24636819 0.00000000)
		(1.81005587 0.24912405 0.00000000)
		(1.82681564 0.24999873 0.00000000)
		(1.84357542 0.24898560 0.00000000)
		(1.86033520 0.24609233 0.00000000)
		(1.87709497 0.24134076 0.00000000)
		(1.89385475 0.23476677 0.00000000)
		(1.91061453 0.22642000 0.00000000)
		(1.92737430 0.21636349 0.00000000)
		(1.94413408 0.20467316 0.00000000)
		(1.96089385 0.19143730 0.00000000)
		(1.97765363 0.17675585 0.00000000)
		(1.99441341 0.16073968 0.00000000)
		(2.01117318 0.14350972 0.00000000)
		(2.02793296 0.12519609 0.00000000)
		(2.04469274 0.10593708 0.00000000)
		(2.06145251 0.08587811 0.00000000)
		(2.07821229 0.06517065 0.00000000)
		(2.09497207 0.04397108 0.00000000)
		(2.11173184 0.02243947 0.00000000)
		(2.12849162 0.00073842 0.00000000)
		(2.14525140 -0.02096821 0.00000000)
		(2.16201117 -0.04251650 0.00000000)
		(2.17877095 -0.06374375 0.00000000)
		(2.19553073 -0.08448964 0.00000000)
		(2.21229050 -0.10459754 0.00000000)
		(2.22905028 -0.12391560 0.00000000)
		(2.24581006 -0.14229794 0.00000000)
		(2.26256983 -0.15960576 0.00000000)
		(2.27932961 -0.17570836 0.00000000)
		(2.29608939 -0.19048415 0.00000000)
		(2.31284916 -0.20382154 0.00000000)
		(2.32960894 -0.21561983 0.00000000)
		(2.34636872 -0.22578993 0.00000000)
		(2.36312849 -0.23425504 0.00000000)
		(2.37988827 -0.24095123 0.00000000)
		(2.39664804 -0.24582794 0.00000000)
		(2.41340782 -0.24884836 0.00000000)
		(2.43016760 -0.24998966 0.00000000)
		(2.44692737 -0.24924323 0.00000000)
		(2.46368715 -0.24661471 0.00000000)
		(2.48044693 -0.24212394 0.00000000)
		(2.49720670 -0.23580484 0.00000000)
		(2.51396648 -0.22770513 0.00000000)
		(2.53072626 -0.21788596 0.00000000)
		(2.54748603 -0.20642148 0.00000000)
		(2.56424581 -0.19339827 0.00000000)
		(2.58100559 -0.17891466 0.00000000)
		(2.59776536 -0.16308003 0.00000000)
		(2.61452514 -0.14601395 0.00000000)
		(2.63128492 -0.12784527 0.00000000)
		(2.64804469 -0.10871121 0.00000000)
		(2.66480447 -0.08875625 0.00000000)
		(2.68156425 -0.06813107 0.00000000)
		(2.69832402 -0.04699141 0.00000000)
		(2.71508380 -0.02549692 0.00000000)
		(2.73184358 -0.00380988 0.00000000)
		(2.74860335 0.01790592 0.00000000)
		(2.76536313 0.03948651 0.00000000)
		(2.78212291 0.06076892 0.00000000)
		(2.79888268 0.08159246 0.00000000)
		(2.81564246 0.10179988 0.00000000)
		(2.83240223 0.12123858 0.00000000)
		(2.84916201 0.13976177 0.00000000)
		(2.86592179 0.15722960 0.00000000)
		(2.88268156 0.17351015 0.00000000)
		(2.89944134 0.18848049 0.00000000)
		(2.91620112 0.20202756 0.00000000)
		(2.93296089 0.21404908 0.00000000)
		(2.95166480 0.21997737 0.00000000)
		(2.97036872 0.22528162 0.00000000)
		(2.98907263 0.22996185 0.00000000)
		(3.00777654 0.23401805 0.00000000)
		(3.02648045 0.23745021 0.00000000)
		(3.04518436 0.24025835 0.00000000)
		(3.06388827 0.24244245 0.00000000)
		(3.08259218 0.24400253 0.00000000)
		(3.10129609 0.24493858 0.00000000)
		(3.12000000 0.24525059 0.00000000)
		(3.14000000 0.24525059 0.00000000)
		(3.16000000 0.24525059 0.00000000)
		(3.18000000 0.24525059 0.00000000)
		(3.20000000 0.24525059 0.00000000)
		(3.22000000 0.24525059 0.00000000)
		(3.24000000 0.24525059 0.00000000)
		(3.26000000 0.24525059 0.00000000)
		(3.28000000 0.24525059 0.00000000)
		(3.30000000 0.24525059 0.00000000)
		(3.32000000 0.24525059 0.00000000)
		(3.34000000 0.24525059 0.00000000)
		(3.36000000 0.24525059 0.00000000)
		(3.38000000 0.24525059 0.00000000)
		(3.40000000 0.24525059 0.00000000)
		(3.42000000 0.24525059 0.00000000)
		(3.44000000 0.24525059 0.00000000)
		(3.46000000 0.24525059 0.00000000)
		(3.48000000 0.24525059 0.00000000)
		(3.50000000 0.24525059 0.00000000)
		(3.52000000 0.24525059 0.00000000)
		(3.54000000 0.24525059 0.00000000)
		(3.56000000 0.24525059 0.00000000)
		(3.58000000 0.24525059 0.00000000)
		(3.60000000 0.24525059 0.00000000)
		(3.62000000 0.24525059 0.00000000)
		(3.64000000 0.24525059 0.00000000)
		(3.66000000 0.24525059 0.00000000)
		(3.68000000 0.24525059 0.00000000)
		(3.70000000 0.24525059 0.00000000)
		(3.72000000 0.24525059 0.00000000)
		(3.74000000 0.24525059 0.00000000)
		(3.76000000 0.24525059 0.00000000)
		(3.78000000 0.24525059 0.00000000)
		(3.80000000 0.24525059 0.00000000)
		(3.82000000 0.24525059 0.00000000)
		(3.84000000 0.24525059 0.00000000)
		(3.86000000 0.24525059 0.00000000)
		(3.88000000 0.24525059 0.00000000)
		(3.90000000 0.24525059 0.00000000)
		(3.92000000 0.24525059 0.00000000)
		(3.94000000 0.24525059 0.00000000)
		(3.96000000 0.24525059 0.00000000)
		(3.98000000 0.24525059 0.00000000)
		(4.00000000 0.24525059 0.00000000)
	)
	polyLine 4 5
	(
		(-1.00000000 -0.24972538 0.10000000)
		(-0.98000000 -0.24972538 0.10000000)
		(-0.96000000 -0.24972538 0.10000000)
		(-0.94000000 -0.24972538 0.10000000)
		(-0.92000000 -0.24972538 0.10000000)
		(-0.90000000 -0.24972538 0.10000000)
		(-0.88000000 -0.24972538 0.10000000)
		(-0.86000000 -0.24972538 0.10000000)
		(-0.84000000 -0.24972538 0.10000000)
		(-0.82000000 -0.24972538 0.10000000)
		(-0.80000000 -0.24972538 0.10000000)
		(-0.78000000 -0.24972538 0.10000000)
		(-0.76000000 -0.24972538 0.10000000)
		(-0.74000000 -0.24972538 0.10000000)
		(-0.72000000 -0.24972538 0.10000000)
		(-0.70000000 -0.24972538 0.10000000)
		(-0.68000000 -0.24972538 0.10000000)
		(-0.66000000 -0.24972538 0.10000000)
		(-0.64000000 -0.24972538 0.10000000)
		(-0.62000000 -0.24972538 0.10000000)
		(-0.60000000 -0.24972538 0.10000000)
		(-0.58000000 -0.24972538 0.10000000)
		(-0.56000000 -0.24972538 0.10000000)
		(-0.54000000 -0.24972538 0.10000000)
		(-0.52000000 -0.24972538 0.10000000)
		(-0.50000000 -0.24972538 0.10000000)
		(-0.48000000 -0.24972538 0.10000000)
		(-0.46000000 -0.24972538 0.10000000)
		(-0.44000000 -0.24972538 0.10000000)
		(-0.42000000 -0.24972538 0.10000000)
		(-0.40000000 -0.24972538 0.10000000)
		(-0.38000000 -0.24972538 0.10000000)
		(-0.36000000 -0.24972538 0.10000000)
		(-0.34000000 -0.24972538 0.10000000)
		(-0.32000000 -0.24972538 0.10000000)
		(-0.30000000 -0.24972538 0.10000000)
		(-0.28000000 -0.24972538 0.10000000)
		(-0.26000000 -0.24972538 0.10000000)
		(-0.24000000 -0.24972538 0.10000000)
		(-0.22000000 -0.24972538 0.10000000)
		(-0.20000000 -0.24972538 0.10000000)
		(-0.18000000 -0.24972538 0.10000000)
		(-0.16000000 -0.24972538 0.10000000)
		(-0.14000000 -0.24972538 0.10000000)
		(-0.12000000 -0.24972538 0.10000000)
		(-0.10000000 -0.24972538 0.10000000)
		(-0.08162011 -0.24954253 0.10000000)
		(-0.06324022 -0.24899398 0.10000000)
		(-0.04486034 -0.24807974 0.10000000)
		(-0.02648045 -0.24679981 0.10000000)
		(-0.00810056 -0.24515418 0.10000000)
		(0.01027933 -0.24314285 0.10000000)
		(0.02865922 -0.24076583 0.10000000)
		(0.04703911 -0.23802311 0.10000000)
		(0.06541899 -0.23491469 0.10000000)
		(0.08379888 -0.23144058 0.10000000)
		(0.10055866 -0.22236036 0.10000000)
		(0.11731844 -0.21160105 0.10000000)
		(0.13407821 -0.19924389 0.10000000)
		(0.15083799 -0.18538219 0.10000000)
		(0.16759777 -0.17012063 0.10000000)
		(0.18435754 -0.15357445 0.10000000)
		(0.20111732 -0.13586859 0.10000000)
		(0.21787709 -0.11713676 0.10000000)
		(0.23463687 -0.09752040 0.10000000)
		(0.25139665 -0.07716765 0.10000000)
		(0.26815642 -0.05623218 0.10000000)
		(0.28491620 -0.03487209 0.10000000)
		(0.30167598 -0.01324867 0.10000000)
		(0.31843575 0.00847479 0.10000000)
		(0.33519553 0.03013425 0.10000000)
		(0.35195531 0.05156616 0.10000000)
		(0.36871508 0.07260869 0.10000000)
		(0.38547486 0.09310293 0.10000000)
		(0.40223464 0.11289413 0.10000000)
		(0.41899441 0.13183284 0.10000000)
		(0.43575419 0.14977605 0.10000000)
		(0.45251397 0.16658827 0.10000000)
		(0.46927374 0.18214254 0.10000000)
		(0.48603352 0.19632141 0.10000000)
		(0.50279330 0.20901782 0.10000000)
		(0.51955307 0.22013588 0.10000000)
		(0.53631285 0.22959164 0.10000000)
		(0.55307263 0.23731371 0.10000000)
		(0.56983240 0.24324376 0.10000000)
		(0.58659218 0.24733703 0.10000000)
		(0.60335196 0.24956260 0.10000000)
		(0.62011173 0.24990366 0.10000000)
		(0.63687151 0.24835765 0.10000000)
		(0.65363128 0.24493622 0.10000000)
		(0.67039106 0.23966523 0.10000000)
		(0.68715084 0.23258447 0.10000000)
		(0.70391061 0.22374742 0.10000000)
		(0.72067039 0.21322079 0.10000000)
		(0.73743017 0.20108409 0.10000000)
		(0.75418994 0.18742895 0.10000000)
		(0.77094972 0.17235850 0.10000000)
		(0.78770950 0.15598652 0.10000000)
		(0.80446927 0.13843666 0.10000000)
		(0.82122905 0.11984143 0.10000000)
		(0.83798883 0.10034125 0.10000000)
		(0.85474860 0.08008337 0.10000000)
		(0.87150838 0.05922076 0.10000000)
		(0.88826816 0.03791096 0.10000000)
		(0.90502793 0.01631489 0.10000000)
		(0.92178771 -0.00540438 0.10000000)
		(0.93854749 -0.02708284 0.10000000)
		(0.95530726 -0.04855679 0.10000000)
		(0.97206704 -0.06966408 0.10000000)
		(0.98882682 -0.09024531 0.10000000)
		(1.00558659 -0.11014509 0.10000000)
		(1.02234637 -0.12921313 0.10000000)
		(1.03910615 -0.14730546 0.10000000)
		(1.05586592 -0.16428545 0.10000000)
		(1.07262570 -0.18002488 0.10000000)
		(1.08938547 -0.19440491 0.10000000)
		(1.10614525 -0.20731693 0.10000000)
		(1.12290503 -0.21866346 0.10000000)
		(1.13966480 -0.22835881 0.10000000)
		(1.15642458 -0.23632977 0.10000000)
		(1.17318436 -0.24251616 0.10000000)
		(1.18994413 -0.24687124 0.10000000)
		(1.20670391 -0.24936215 0.10000000)
		(1.22346369 -0.24997006 0.10000000)
		(1.24022346 -0.24869040 0.10000000)
		(1.25698324 -0.24553281 0.10000000)
		(1.27374302 -0.24052115 0.10000000)
		(1.29050279 -0.23369326 0.10000000)
		(1.30726257 -0.22510070 0.10000000)
		(1.32402235 -0.21480835 0.10000000)
		(1.34078212 -0.20289394 0.10000000)
		(1.35754190 -0.18944742 0.10000000)
		(1.37430168 -0.17457035 0.10000000)
		(1.39106145 -0.15837505 0.10000000)
		(1.40782123 -0.14098383 0.10000000)
		(1.42458101 -0.12252801 0.10000000)
		(1.44134078 -0.10314695 0.10000000)
		(1.45810056 -0.08298700 0.10000000)
		(1.47486034 -0.06220040 0.10000000)
		(1.49162011 -0.04094411 0.10000000)
		(1.50837989 -0.01937865 0.10000000)
		(1.52513966 0.00233316 0.10000000)
		(1.54189944 0.02402734 0.10000000)
		(1.55865922 0.04554008 0.10000000)
		(1.57541899 0.06670895 0.10000000)
		(1.59217877 0.08737407 0.10000000)
		(1.60893855 0.10737942 0.10000000)
		(1.62569832 0.12657392 0.10000000)
		(1.64245810 0.14481263 0.10000000)
		(1.65921788 0.16195783 0.10000000)
		(1.67597765 0.17788005 0.10000000)
		(1.69273743 0.19245905 0.10000000)
		(1.70949721 0.20558475 0.10000000)
		(1.72625698 0.21715804 0.10000000)
		(1.74301676 0.22709151 0.10000000)
		(1.75977654 0.23531017 0.10000000)
		(1.77653631 0.24175194 0.10000000)
		(1.79329609 0.24636819 0.10000000)
		(1.81005587 0.24912405 0.10000000)
		(1.82681564 0.24999873 0.10000000)
		(1.84357542 0.24898560 0.10000000)
		(1.86033520 0.24609233 0.10000000)
		(1.87709497 0.24134076 0.10000000)
		(1.89385475 0.23476677 0.10000000)
		(1.91061453 0.22642000 0.10000000)
		(1.92737430 0.21636349 0.10000000)
		(1.94413408 0.20467316 0.10000000)
		(1.96089385 0.19143730 0.10000000)
		(1.97765363 0.17675585 0.10000000)
		(1.99441341 0.16073968 0.10000000)
		(2.01117318 0.14350972 0.10000000)
		(2.02793296 0.12519609 0.10000000)
		(2.04469274 0.10593708 0.10000000)
		(2.06145251 0.08587811 0.10000000)
		(2.07821229 0.06517065 0.10000000)
		(2.09497207 0.04397108 0.10000000)
		(2.11173184 0.02243947 0.10000000)
		(2.12849162 0.00073842 0.10000000)
		(2.14525140 -0.02096821 0.10000000)
		(2.16201117 -0.04251650 0.10000000)
		(2.17877095 -0.06374375 0.10000000)
		(2.19553073 -0.08448964 0.10000000)
		(2.21229050 -0.10459754 0.10000000)
		(2.22905028 -0.12391560 0.10000000)
		(2.24581006 -0.14229794 0.10000000)
		(2.26256983 -0.15960576 0.10000000)
		(2.27932961 -0.17570836 0.10000000)
		(2.29608939 -0.19048415 0.10000000)
		(2.31284916 -0.20382154 0.10000000)
		(2.32960894 -0.21561983 0.10000000)
		(2.34636872 -0.22578993 0.10000000)
		(2.36312849 -0.23425504 0.10000000)
		(2.37988827 -0.24095123 0.10000000)
		(2.39664804 -0.24582794 0.10000000)
		(2.41340782 -0.24884836 0.10000000)
		(2.43016760 -0.24998966 0.10000000)
		(2.44692737 -0.24924323 0.10000000)
		(2.46368715 -0.24661471 0.10000000)
		(2.48044693 -0.24212394 0.10000000)
		(2.49720670 -0.23580484 0.10000000)
		(2.51396648 -0.22770513 0.10000000)
		(2.53072626 -0.21788596 0.10000000)
		(2.54748603 -0.20642148 0.10000000)
		(2.56424581 -0.19339827 0.10000000)
		(2.58100559 -0.17891466 0.10000000)
		(2.59776536 -0.16308003 0.10000000)
		(2.61452514 -0.14601395 0.10000000)
		(2.63128492 -0.12784527 0.10000000)
		(2.64804469 -0.10871121 0.10000000)
		(2.66480447 -0.08875625 0.10000000)
		(2.68156425 -0.06813107 0.10000000)
		(2.69832402 -0.04699141 0.10000000)
		(2.71508380 -0.02549692 0.10000000)
		(2.73184358 -0.00380988 0.10000000)
		(2.74860335 0.01790592 0.10000000)
		(2.76536313 0.03948651 0.10000000)
		(2.78212291 0.06076892 0.10000000)
		(2.79888268 0.08159246 0.10000000)
		(2.81564246 0.10179988 0.10000000)
		(2.83240223 0.12123858 0.10000000)
		(2.84916201 0.13976177 0.10000000)
		(2.86592179 0.15722960 0.10000000)
		(2.88268156 0.17351015 0.10000000)
		(2.89944134 0.18848049 0.10000000)
		(2.91620112 0.20202756 0.10000000)
		(2.93296089 0.21404908 0.10000000)
		(2.95166480 0.21997737 0.10000000)
		(2.97036872 0.22528162 0.10000000)
		(2.98907263 0.22996185 0.10000000)
		(3.00777654 0.23401805 0.10000000)
		(3.02648045 0.23745021 0.10000000)
		(3.04518436 0.24025835 0.10000000)
		(3.06388827 0.24244245 0.10000000)
		(3.08259218 0.24400253 0.10000000)
		(3.10129609 0.24493858 0.10000000)
		(3.12000000 0.24525059 0.10000000)
		(3.14000000 0.24525059 0.10000000)
		(3.16000000 0.24525059 0.10000000)
		(3.18000000 0.24525059 0.10000000)
		(3.20000000 0.24525059 0.10000000)
		(3.22000000 0.24525059 0.10000000)
		(3.24000000 0.24525059 0.10000000)
		(3.26000000 0.24525059 0.10000000)
		(3.28000000 0.24525059 0.10000000)
		(3.30000000 0.24525059 0.10000000)
		(3.32000000 0.24525059 0.10000000)
		(3.34000000 0.24525059 0.10000000)
		(3.36000000 0.24525059 0.10000000)
		(3.38000000 0.24525059 0.10000000)
		(3.40000000 0.24525059 0.10000000)
		(3.42000000 0.24525059 0.10000000)
		(3.44000000 0.24525059 0.10000000)
		(3.46000000 0.24525059 0.10000000)
		(3.48000000 0.24525059 0.10000000)
		(3.50000000 0.24525059 0.10000000)
		(3.52000000 0.24525059 0.10000000)
		(3.54000000 0.24525059 0.10000000)
		(3.56000000 0.24525059 0.10000000)
		(3.58000000 0.24525059 0.10000000)
		(3.60000000 0.24525059 0.10000000)
		(3.62000000 0.24525059 0.10000000)
		(3.64000000 0.24525059 0.10000000)
		(3.66000000 0.24525059 0.10000000)
		(3.68000000 0.24525059 0.10000000)
		(3.70000000 0.24525059 0.10000000)
		(3.72000000 0.24525059 0.10000000)
		(3.74000000 0.24525059 0.10000000)
		(3.76000000 0.24525059 0.10000000)
		(3.78000000 0.24525059 0.10000000)
		(3.80000000 0.24525059 0.10000000)
		(3.82000000 0.24525059 0.10000000)
		(3.84000000 0.24525059 0.10000000)
		(3.86000000 0.24525059 0.10000000)
		(3.88000000 0.24525059 0.10000000)
		(3.90000000 0.24525059 0.10000000)
		(3.92000000 0.24525059 0.10000000)
		(3.94000000 0.24525059 0.10000000)
		(3.96000000 0.24525059 0.10000000)
		(3.98000000 0.24525059 0.10000000)
		(4.00000000 0.24525059 0.10000000)
	)
	polyLine 3 2
	(
		(-1.00000000 0.25027462 0.00000000)
		(-0.98000000 0.25049101 0.00000000)
		(-0.96000000 0.25070739 0.00000000)
		(-0.94000000 0.25092377 0.00000000)
		(-0.92000000 0.25114016 0.00000000)
		(-0.90000000 0.25135654 0.00000000)
		(-0.88000000 0.25157292 0.00000000)
		(-0.86000000 0.25178931 0.00000000)
		(-0.84000000 0.25200569 0.00000000)
		(-0.82000000 0.25222208 0.00000000)
		(-0.80000000 0.25243846 0.00000000)
		(-0.78000000 0.25265484 0.00000000)
		(-0.76000000 0.25287123 0.00000000)
		(-0.74000000 0.25308761 0.00000000)
		(-0.72000000 0.25330399 0.00000000)
		(-0.70000000 0.25352038 0.00000000)
		(-0.68000000 0.25373676 0.00000000)
		(-0.66000000 0.25395314 0.00000000)
		(-0.64000000 0.25416953 0.00000000)
		(-0.62000000 0.25438591 0.00000000)
		(-0.60000000 0.25460229 0.00000000)
		(-0.58000000 0.25481868 0.00000000)
		(-0.56000000 0.25503506 0.00000000)
		(-0.54000000 0.25525144 0.00000000)
		(-0.52000000 0.25546783 0.00000000)
		(-0.50000000 0.25568421 0.00000000)
		(-0.48000000 0.25590060 0.00000000)
		(-0.46000000 0.25611698 0.00000000)
		(-0.44000000 0.25633336 0.00000000)
		(-0.42000000 0.25654975 0.00000000)
		(-0.40000000 0.25676613 0.00000000)
		(-0.38000000 0.25698251 0.00000000)
		(-0.36000000 0.25719890 0.00000000)
		(-0.34000000 0.25741528 0.00000000)
		(-0.32000000 0.25763166 0.00000000)
		(-0.30000000 0.25784805 0.00000000)
		(-0.28000000 0.25806443 0.00000000)
		(-0.26000000 0.25828081 0.00000000)
		(-0.24000000 0.25849720 0.00000000)
		(-0.22000000 0.25871358 0.00000000)
		(-0.20000000 0.25892997 0.00000000)
		(-0.18000000 0.25914635 0.00000000)
		(-0.16000000 0.25936273 0.00000000)
		(-0.14000000 0.25957912 0.00000000)
		(-0.12000000 0.25979550 0.00000000)
		(-0.10000000 0.26001188 0.00000000)
		(-0.08162011 0.26004588 0.00000000)
		(-0.06324022 0.26048063 0.00000000)
		(-0.04486034 0.26131614 0.00000000)
		(-0.02648045 0.26255241 0.00000000)
		(-0.00810056 0.26418943 0.00000000)
		(0.01027933 0.26622721 0.00000000)
		(0.02865922 0.26866574 0.00000000)
		(0.04703911 0.27150503 0.00000000)
		(0.06541899 0.27474508 0.00000000)
		(0.08379888 0.27838588 0.00000000)
		(0.10055866 0.28708058 0.00000000)
		(0.11731844 0.29738307 0.00000000)
		(0.13407821 0.30921557 0.00000000)
		(0.15083799 0.32248873 0.00000000)
		(0.16759777 0.33710232 0.00000000)
		(0.18435754 0.35294599 0.00000000)
		(0.20111732 0.36990009 0.00000000)
		(0.21787709 0.38783661 0.00000000)
		(0.23463687 0.40662010 0.00000000)
		(0.25139665 0.42610872 0.00000000)
		(0.26815642 0.44615532 0.00000000)
		(0.28491620 0.46660850 0.00000000)
		(0.30167598 0.48731383 0.00000000)
		(0.31843575 0.50811496 0.00000000)
		(0.33519553 0.52885482 0.00000000)
		(0.35195531 0.54937678 0.00000000)
		(0.36871508 0.56952588 0.00000000)
		(0.38547486 0.58914999 0.00000000)
		(0.40223464 0.60810089 0.00000000)
		(0.41899441 0.62623551 0.00000000)
		(0.43575419 0.64341689 0.00000000)
		(0.45251397 0.65951530 0.00000000)
		(0.46927374 0.67440917 0.00000000)
		(0.48603352 0.68798603 0.00000000)
		(0.50279330 0.70014338 0.00000000)
		(0.51955307 0.71078939 0.00000000)
		(0.53631285 0.71984368 0.00000000)
		(0.55307263 0.72723789 0.00000000)
		(0.56983240 0.73291617 0.00000000)
		(0.58659218 0.73683564 0.00000000)
		(0.60335196 0.73896672 0.00000000)
		(0.62011173 0.73929330 0.00000000)
		(0.63687151 0.73781292 0.00000000)
		(0.65363128 0.73453677 0.00000000)
		(0.67039106 0.72948957 0.00000000)
		(0.68715084 0.72270945 0.00000000)
		(0.70391061 0.71424759 0.00000000)
		(0.72067039 0.70416790 0.00000000)
		(0.73743017 0.69254650 0.00000000)
		(0.75418994 0.67947113 0.00000000)
		(0.77094972 0.66504053 0.00000000)
		(0.78770950 0.64936368 0.00000000)
		(0.80446927 0.63255894 0.00000000)
		(0.82122905 0.61475323 0.00000000)
		(0.83798883 0.59608098 0.00000000)
		(0.85474860 0.57668320 0.00000000)
		(0.87150838 0.55670638 0.00000000)
		(0.88826816 0.53630135 0.00000000)
		(0.90502793 0.51562220 0.00000000)
		(0.92178771 0.49482508 0.00000000)
		(0.93854749 0.47406704 0.00000000)
		(0.95530726 0.45350483 0.00000000)
		(0.97206704 0.43329371 0.00000000)
		(0.98882682 0.41358630 0.00000000)
		(1.00558659 0.39453143 0.00000000)
		(1.02234637 0.37627297 0.00000000)
		(1.03910615 0.35894881 0.00000000)
		(1.05586592 0.34268975 0.00000000)
		(1.07262570 0.32761858 0.00000000)
		(1.08938547 0.31384910 0.00000000)
		(1.10614525 0.30148529 0.00000000)
		(1.12290503 0.29062051 0.00000000)
		(1.13966480 0.28133680 0.00000000)
		(1.15642458 0.27370427 0.00000000)
		(1.17318436 0.26778055 0.00000000)
		(1.18994413 0.26361037 0.00000000)
		(1.20670391 0.26122522 0.00000000)
		(1.22346369 0.26064312 0.00000000)
		(1.24022346 0.26186846 0.00000000)
		(1.25698324 0.26489198 0.00000000)
		(1.27374302 0.26969085 0.00000000)
		(1.29050279 0.27622884 0.00000000)
		(1.30726257 0.28445658 0.00000000)
		(1.32402235 0.29431194 0.00000000)
		(1.34078212 0.30572050 0.00000000)
		(1.35754190 0.31859610 0.00000000)
		(1.37430168 0.33284153 0.00000000)
		(1.39106145 0.34834921 0.00000000)
		(1.40782123 0.36500203 0.00000000)
		(1.42458101 0.38267426 0.00000000)
		(1.44134078 0.40123244 0.00000000)
		(1.45810056 0.42053644 0.00000000)
		(1.47486034 0.44044049 0.00000000)
		(1.49162011 0.46079428 0.00000000)
		(1.50837989 0.48144413 0.00000000)
		(1.52513966 0.50223409 0.00000000)
		(1.54189944 0.52300719 0.00000000)
		(1.55865922 0.54360655 0.00000000)
		(1.57541899 0.56387663 0.00000000)
		(1.59217877 0.58366436 0.00000000)
		(1.60893855 0.60282033 0.00000000)
		(1.62569832 0.62119987 0.00000000)
		(1.64245810 0.63866420 0.00000000)
		(1.65921788 0.65508145 0.00000000)
		(1.67597765 0.67032765 0.00000000)
		(1.69273743 0.68428766 0.00000000)
		(1.70949721 0.69685607 0.00000000)
		(1.72625698 0.70793798 0.00000000)
		(1.74301676 0.71744970 0.00000000)
		(1.75977654 0.72531941 0.00000000)
		(1.77653631 0.73148768 0.00000000)
		(1.79329609 0.73590793 0.00000000)
		(1.81005587 0.73854679 0.00000000)
		(1.82681564 0.73938433 0.00000000)
		(1.84357542 0.73841422 0.00000000)
		(1.86033520 0.73564379 0.00000000)
		(1.87709497 0.73109396 0.00000000)
		(1.89385475 0.72479909 0.00000000)
		(1.91061453 0.71680670 0.00000000)
		(1.92737430 0.70717716 0.00000000)
		(1.94413408 0.69598318 0.00000000)
		(1.96089385 0.68330929 0.00000000)
		(1.97765363 0.66925118 0.00000000)
		(1.99441341 0.65391502 0.00000000)
		(2.01117318 0.63741661 0.00000000)
		(2.02793296 0.61988054 0.00000000)
		(2.04469274 0.60143922 0.00000000)
		(2.06145251 0.58223191 0.00000000)
		(2.07821229 0.56240365 0.00000000)
		(2.09497207 0.54210417 0.00000000)
		(2.11173184 0.52148674 0.00000000)
		(2.12849162 0.50070707 0.00000000)
		(2.14525140 0.47992205 0.00000000)
		(2.16201117 0.45928865 0.00000000)
		(2.17877095 0.43896267 0.00000000)
		(2.19553073 0.41909760 0.00000000)
		(2.21229050 0.39984344 0.00000000)
		(2.22905028 0.38134558 0.00000000)
		(2.24581006 0.36374372 0.00000000)
		(2.26256983 0.34717075 0.00000000)
		(2.27932961 0.33175183 0.00000000)
		(2.29608939 0.31760339 0.00000000)
		(2.31284916 0.30483228 0.00000000)
		(2.32960894 0.29353491 0.00000000)
		(2.34636872 0.28379662 0.00000000)
		(2.36312849 0.27569092 0.00000000)
		(2.37988827 0.26927903 0.00000000)
		(2.39664804 0.26460937 0.00000000)
		(2.41340782 0.26171720 0.00000000)
		(2.43016760 0.26062436 0.00000000)
		(2.44692737 0.26133910 0.00000000)
		(2.46368715 0.26385602 0.00000000)
		(2.48044693 0.26815611 0.00000000)
		(2.49720670 0.27420692 0.00000000)
		(2.51396648 0.28196274 0.00000000)