/*--------------------------------*- C++ -*----------------------------------*\\\\
/*--------------------------------*- C++ -*----------------------------------*\\\\
/*--------------------------------*- C++ -*----------------------------------*\\\\
| =========                 |                                                 |
| \\\\\\\\      /  F ield         | OpenFOAM: The Open Source CFD Toolbox           |
|  \\\\\\\\    /   O peration     | Version:  v2012                                 |
|   \\\\\\\\  /    A nd           | Website:  www.openfoam.com                      |
|    \\\\\\\\/     M anipulation  |                                                 |
\\\\*---------------------------------------------------------------------------*/
FoamFile
{
    version     2.0;
    format      ascii;
    class       dictionary;
    object      blockMeshDict;
}
// * * * * * * * * * * * * * * * * * * * * * * * * * * * * * * * * * * * * * //

scale   0.01;

xmin -1;
xmax 5;
ymin 0;
ymax 0.5;
zmin 0;
zmax 0.1;

vertices
(
    (  -1.0  0.0  $zmin  )
    (  4.0  0.10302962131043915  $zmin  )
    (  4.0  0.6030296213104391  $zmin  )
    (  -1.0  0.5  $zmin  )
    (  -1.0  0.0  $zmax )
    (  4.0  0.10302962131043915  $zmax )
    (  4.0  0.6030296213104391  $zmax )
    (  -1.0  0.5  $zmax )
);

blocks
(
    hex (0 1 2 3 4 5 6 7) (200 20 1) simpleGrading (1 1 1)
);

edges
(
	polyLine 0 1 ((	-1.0	0.023613551172322424	0	)
(	-0.98	0.023613551172322424	0	)
(	-0.96	0.023613551172322424	0	)
(	-0.94	0.023613551172322424	0	)
(	-0.92	0.023613551172322424	0	)
(	-0.9	0.023613551172322424	0	)
(	-0.88	0.023613551172322424	0	)
(	-0.86	0.023613551172322424	0	)
(	-0.84	0.023613551172322424	0	)
(	-0.8200000000000001	0.023613551172322424	0	)
(	-0.8	0.023613551172322424	0	)
(	-0.78	0.023613551172322424	0	)
(	-0.76	0.023613551172322424	0	)
(	-0.74	0.023613551172322424	0	)
(	-0.72	0.023613551172322424	0	)
(	-0.7	0.023613551172322424	0	)
(	-0.6799999999999999	0.023613551172322424	0	)
(	-0.6599999999999999	0.023613551172322424	0	)
(	-0.64	0.023613551172322424	0	)
(	-0.62	0.023613551172322424	0	)
(	-0.6	0.023613551172322424	0	)
(	-0.5800000000000001	0.023613551172322424	0	)
(	-0.56	0.023613551172322424	0	)
(	-0.54	0.023613551172322424	0	)
(	-0.52	0.023613551172322424	0	)
(	-0.5	0.023613551172322424	0	)
(	-0.48	0.023613551172322424	0	)
(	-0.45999999999999996	0.023613551172322424	0	)
(	-0.43999999999999995	0.023613551172322424	0	)
(	-0.42000000000000004	0.023613551172322424	0	)
(	-0.4	0.023613551172322424	0	)
(	-0.38	0.023613551172322424	0	)
(	-0.36	0.023613551172322424	0	)
(	-0.33999999999999997	0.023613551172322424	0	)
(	-0.31999999999999995	0.023613551172322424	0	)
(	-0.29999999999999993	0.023613551172322424	0	)
(	-0.28	0.023613551172322424	0	)
(	-0.26	0.023613551172322424	0	)
(	-0.24	0.023613551172322424	0	)
(	-0.21999999999999997	0.023613551172322424	0	)
(	-0.19999999999999996	0.023613551172322424	0	)
(	-0.17999999999999994	0.023613551172322424	0	)
(	-0.16000000000000003	0.023613551172322424	0	)
(	-0.14	0.023613551172322424	0	)
(	-0.12	0.023613551172322424	0	)
(	-0.09999999999999998	0.023613551172322424	0	)
(	-0.07957790192427062	0.023040125951284976	0	)
(	-0.059155803848541265	0.02527565038468546	0	)
(	-0.038733705772811905	0.030320124472523878	0	)
(	-0.018311607697082552	0.03817354821480023	0	)
(	0.002110490378646801	0.04883592161151451	0	)
(	0.022532588454376168	0.062307244662666725	0	)
(	0.04295468653010551	0.07858751736825687	0	)
(	0.06337678460583487	0.09767673972828494	0	)
(	0.08379888268156424	0.11957491174275099	0	)
(	0.08379888268156424	0.11957491174275099	0	)
(	0.1005586592178771	0.13691018627713583	0	)
(	0.11731843575418995	0.15335156909188208	0	)
(	0.1340782122905028	0.16879171378452618	0	)
(	0.15083798882681565	0.18312981107369788	0	)
(	0.16759776536312848	0.19627224698668536	0	)
(	0.18435754189944134	0.20813321406855825	0	)
(	0.2011173184357542	0.21863527162224555	0	)
(	0.21787709497206703	0.22770985132173976	0	)
(	0.2346368715083799	0.2352977048972581	0	)
(	0.25139664804469275	0.24134929096940833	0	)
(	0.2681564245810056	0.24582509850670584	0	)
(	0.2849162011173184	0.24869590479457346	0	)
(	0.3016759776536313	0.24994296623153642	0	)
(	0.31843575418994413	0.24955814070689647	0	)
(	0.33519553072625696	0.24754394076087685	0	)
(	0.35195530726256985	0.24391351718015303	0	)
(	0.3687150837988827	0.23869057313587572	0	)
(	0.3854748603351955	0.23190920942478085	0	)
(	0.4022346368715084	0.22361370182381402	0	)
(	0.41899441340782123	0.21385821201192962	0	)
(	0.43575418994413406	0.20270643394646537	0	)
(	0.4525139664804469	0.19023117800291678	0	)
(	0.4692737430167598	0.1765138955932753	0	)
(	0.4860335195530726	0.16164414736671798	0	)
(	0.5027932960893855	0.14571901846478366	0	)
(	0.5195530726256983	0.12884248464885814	0	)
(	0.5363128491620112	0.11112473343854408	0	)
(	0.553072625698324	0.09268144469323114	0	)
(	0.5698324022346368	0.07363303533397277	0	)
(	0.5865921787709497	0.0541038731369111	0	)
(	0.6033519553072626	0.03422146473142211	0	)
(	0.6201117318435754	0.014115623104570244	0	)
(	0.6368715083798883	-0.006082379952733469	0	)
(	0.6536312849162011	-0.026240670924156016	0	)
(	0.6703910614525139	-0.0462276355750563	0	)
(	0.6871508379888268	-0.06591277826673919	0	)
(	0.7039106145251397	-0.08516757396735332	0	)
(	0.7206703910614525	-0.10386630739662533	0	)
(	0.7374301675977654	-0.12188689382561989	0	)
(	0.7541899441340782	-0.13911167617249418	0	)
(	0.770949720670391	-0.15542819318997994	0	)
(	0.7877094972067039	-0.17072991372906743	0	)
(	0.8044692737430168	-0.18491693228485534	0	)
(	0.8212290502793296	-0.19789662128332444	0	)
(	0.8379888268156425	-0.20958423585022767	0	)
(	0.8547486033519552	-0.21990346711353886	0	)
(	0.8715083798882681	-0.22878694042692876	0	)
(	0.888268156424581	-0.23617665526134687	0	)
(	0.9050279329608938	-0.24202436389264204	0	)
(	0.9217877094972067	-0.24629188641275554	0	)
(	0.9385474860335196	-0.2489513600077665	0	)
(	0.9553072625698323	-0.24998542087524492	0	)
(	0.9720670391061452	-0.24938731759316607	0	)
(	0.9888268156424581	-0.24716095520019707	0	)
(	1.005586592178771	-0.24332086969955366	0	)
(	1.0223463687150838	-0.2378921331528923	0	)
(	1.0391061452513966	-0.23091018998388302	0	)
(	1.0558659217877095	-0.22242062556024358	0	)
(	1.0726256983240223	-0.2124788685651715	0	)
(	1.089385474860335	-0.20114982910140042	0	)
(	1.106145251396648	-0.18850747489071548	0	)
(	1.1229050279329609	-0.17463434833593577	0	)
(	1.1396648044692737	-0.1596210275984823	0	)
(	1.1564245810055866	-0.14356553521017956	0	)
(	1.1731843575418994	-0.12657269808048516	0	)
(	1.1899441340782122	-0.10875346307768116	0	)
(	1.2067039106145252	-0.0902241726526282	0	)
(	1.223463687150838	-0.07110580523455928	0	)
(	1.2402234636871508	-0.05152318535839535	0	)
(	1.2569832402234637	-0.03160416868069552	0	)
(	1.2737430167597765	-0.011478807205301	0	)
(	1.2905027932960893	0.008721499831056936	0	)
(	1.3072625698324023	0.028864863869280364	0	)
(	1.324022346368715	0.04881976813323212	0	)
(	1.3407821229050279	0.06845592630768083	0	)
(	1.3575418994413408	0.08764513318251822	0	)
(	1.3743016759776536	0.1062621017093636	0	)
(	1.3910614525139664	0.12418528100538344	0	)
(	1.4078212290502794	0.1412976499635445	0	)
(	1.4245810055865922	0.15748748128779158	0	)
(	1.441340782122905	0.17264907096473758	0	)
(	1.458100558659218	0.18668342840911437	0	)
(	1.4748603351955307	0.19949892277700032	0	)
(	1.4916201117318435	0.21101188122702408	0	)
(	1.5083798882681565	0.22114713522347	0	)
(	1.5251396648044693	0.22983851131445512	0	)
(	1.541899441340782	0.2370292631808689	0	)
(	1.558659217877095	0.24267244213520936	0	)
(	1.5754189944134078	0.24673120365131737	0	)
(	1.5921787709497206	0.24917904792366433	0	)
(	1.6089385474860336	0.24999999288557198	0	)
(	1.6256983240223464	0.24918867855672266	0	)
(	1.6424581005586592	0.24675040203867113	0	)
(	1.659217877094972	0.24270108292987047	0	)
(	1.675977653631285	0.2370671593860193	0	)
(	1.6927374301675977	0.229885415504356	0	)
(	1.7094972067039105	0.22120274115891367	0	)
(	1.7262569832402235	0.21107582585478127	0	)
(	1.7430167597765363	0.19957078860020813	0	)
(	1.759776536312849	0.18676274621312894	0	)
(	1.776536312849162	0.17273532288065405	0	)
(	1.7932960893854748	0.15758010417362955	0	)
(	1.8100558659217876	0.14139603908102302	0	)
(	1.8268156424581006	0.12428879396827977	0	)
(	1.8435754189944134	0.10637006267767686	0	)
(	1.8603351955307261	0.08775683727505411	0	)
(	1.8770949720670391	0.06857064420424708	0	)
(	1.893854748603352	0.04893675083639755	0	)
(	1.9106145251396647	0.028983347594606832	0	)
(	1.9273743016759777	0.008840710993876608	0	)
(	1.9441340782122905	-0.011359646939122735	0	)
(	1.9608938547486032	-0.031485837312986924	0	)
(	1.9776536312849162	-0.05140645547907567	0	)
(	1.994413407821229	-0.0709914389773704	0	)
(	2.011173184357542	-0.09011291671913504	0	)
(	2.0279329608938546	-0.1086460438620279	0	)
(	2.0446927374301676	-0.12646981692674364	0	)
(	2.0614525139664805	-0.14346786383324497	0	)
(	2.078212290502793	-0.1595292036984219	0	)
(	2.094972067039106	-0.17454897143442324	0	)
(	2.111731843575419	-0.18842910241672953	0	)
(	2.1284916201117317	-0.20107897275175018	0	)
(	2.1452513966480447	-0.2124159909636108	0	)
(	2.1620111731843576	-0.2223661372369815	0	)
(	2.17877094972067	-0.23086444669521675	0	)
(	2.195530726256983	-0.2378554335584623	0	)
(	2.212290502793296	-0.24329345341238265	0	)
(	2.2290502793296088	-0.2471430012222478	0	)
(	2.2458100558659218	-0.24937894314663125	0	)
(	2.2625698324022347	-0.24998668063719873	0	)
(	2.2793296089385473	-0.2489622457531761	0	)
(	2.2960893854748603	-0.24631232706818254	0	)
(	2.3128491620111733	-0.2420542260002837	0	)
(	2.329608938547486	-0.2362157438503873	0	)
(	2.346368715083799	-0.22883500028650994	0	)
(	2.363128491620112	-0.21996018445904264	0	)
(	2.3798882681564244	-0.2096492403719871	0	)
(	2.3966480446927374	-0.19796948856438895	0	)
(	2.4134078212290504	-0.18499718657202524	0	)
(	2.430167597765363	-0.17081703103910478	0	)
(	2.446927374301676	-0.15552160473071355	0	)
(	2.463687150837989	-0.1392107720564854	0	)
(	2.4804469273743015	-0.12199102705214189	0	)
(	2.4972067039106145	-0.10397479807595211	0	)
(	2.5139664804469275	-0.08527971375978766	0	)
(	2.53072625698324	-0.06602783500738849	0	)
(	2.547486033519553	-0.04634485805416333	0	)
(	2.564245810055866	-0.026359293791776338	0	)
(	2.5810055865921786	-0.006201628715734517	0	)
(	2.5977653631284916	0.013996527025816349	0	)
(	2.6145251396648046	0.03410329891966176	0	)
(	2.631284916201117	0.05398740910114198	0	)
(	2.64804469273743	0.07351903347223496	0	)
(	2.664804469273743	0.09257064932793765	0	)
(	2.6815642458100557	0.11101786795677247	0	)
(	2.6983240223463687	0.12874024677933055	0	)
(	2.7150837988826817	0.14562207572236882	0	)
(	2.7318435754189943	0.16155313269420138	0	)
(	2.7486033519553073	0.17642940322885348	0	)
(	2.7653631284916202	0.1901537596003927	0	)
(	2.782122905027933	0.2026365949734804	0	)
(	2.798882681564246	0.21379640844974693	0	)
(	2.815642458100559	0.22356033719019955	0	)
(	2.8324022346368714	0.2318646321394202	0	)
(	2.8491620111731844	0.23865507424553023	0	)
(	2.8659217877094973	0.24388732845840352	0	)
(	2.88268156424581	0.24752723319486564	0	)
(	2.899441340782123	0.24955102338094617	0	)
(	2.916201117318436	0.2499454856149339	0	)
(	2.9329608938547485	0.24870804443817052	0	)
(	2.9537430167597765	0.24401322967648037	0	)
(	2.9745251396648045	0.23991020241222322	0	)
(	2.9953072625698325	0.23639896264539903	0	)
(	3.0160893854748605	0.23347951037600786	0	)
(	3.036871508379888	0.23115184560404972	0	)
(	3.057653631284916	0.22941596832952452	0	)
(	3.078435754189944	0.2282718785524323	0	)
(	3.099217877094972	0.22771957627277306	0	)
(	3.12	0.2277590614905468	0	)
(	3.12	0.2277590614905468	0	)
(	3.14	0.2277590614905468	0	)
(	3.16	0.2277590614905468	0	)
(	3.1799999999999997	0.2277590614905468	0	)
(	3.2	0.2277590614905468	0	)
(	3.2199999999999998	0.2277590614905468	0	)
(	3.24	0.2277590614905468	0	)
(	3.26	0.2277590614905468	0	)
(	3.2800000000000002	0.2277590614905468	0	)
(	3.3	0.2277590614905468	0	)
(	3.32	0.2277590614905468	0	)
(	3.34	0.2277590614905468	0	)
(	3.36	0.2277590614905468	0	)
(	3.38	0.2277590614905468	0	)
(	3.4	0.2277590614905468	0	)
(	3.42	0.2277590614905468	0	)
(	3.44	0.2277590614905468	0	)
(	3.46	0.2277590614905468	0	)
(	3.48	0.2277590614905468	0	)
(	3.5	0.2277590614905468	0	)
(	3.52	0.2277590614905468	0	)
(	3.54	0.2277590614905468	0	)
(	3.56	0.2277590614905468	0	)
(	3.58	0.2277590614905468	0	)
(	3.6	0.2277590614905468	0	)
(	3.62	0.2277590614905468	0	)
(	3.64	0.2277590614905468	0	)
(	3.66	0.2277590614905468	0	)
(	3.68	0.2277590614905468	0	)
(	3.7	0.2277590614905468	0	)
(	3.7199999999999998	0.2277590614905468	0	)
(	3.74	0.2277590614905468	0	)
(	3.76	0.2277590614905468	0	)
(	3.78	0.2277590614905468	0	)
(	3.8	0.2277590614905468	0	)
(	3.82	0.2277590614905468	0	)
(	3.84	0.2277590614905468	0	)
(	3.86	0.2277590614905468	0	)
(	3.88	0.2277590614905468	0	)
(	3.9	0.2277590614905468	0	)
(	3.92	0.2277590614905468	0	)
(	3.94	0.2277590614905468	0	)
(	3.96	0.2277590614905468	0	)
(	3.98	0.2277590614905468	0	)
(	4.0	0.2277590614905468	0	)
)
	polyLine 4 5 ((	-1.0	0.023613551172322424	0.1	)
(	-0.98	0.023613551172322424	0.1	)
(	-0.96	0.023613551172322424	0.1	)
(	-0.94	0.023613551172322424	0.1	)
(	-0.92	0.023613551172322424	0.1	)
(	-0.9	0.023613551172322424	0.1	)
(	-0.88	0.023613551172322424	0.1	)
(	-0.86	0.023613551172322424	0.1	)
(	-0.84	0.023613551172322424	0.1	)
(	-0.8200000000000001	0.023613551172322424	0.1	)
(	-0.8	0.023613551172322424	0.1	)
(	-0.78	0.023613551172322424	0.1	)
(	-0.76	0.023613551172322424	0.1	)
(	-0.74	0.023613551172322424	0.1	)
(	-0.72	0.023613551172322424	0.1	)
(	-0.7	0.023613551172322424	0.1	)
(	-0.6799999999999999	0.023613551172322424	0.1	)
(	-0.6599999999999999	0.023613551172322424	0.1	)
(	-0.64	0.023613551172322424	0.1	)
(	-0.62	0.023613551172322424	0.1	)
(	-0.6	0.023613551172322424	0.1	)
(	-0.5800000000000001	0.023613551172322424	0.1	)
(	-0.56	0.023613551172322424	0.1	)
(	-0.54	0.023613551172322424	0.1	)
(	-0.52	0.023613551172322424	0.1	)
(	-0.5	0.023613551172322424	0.1	)
(	-0.48	0.023613551172322424	0.1	)
(	-0.45999999999999996	0.023613551172322424	0.1	)
(	-0.43999999999999995	0.023613551172322424	0.1	)
(	-0.42000000000000004	0.023613551172322424	0.1	)
(	-0.4	0.023613551172322424	0.1	)
(	-0.38	0.023613551172322424	0.1	)
(	-0.36	0.023613551172322424	0.1	)
(	-0.33999999999999997	0.023613551172322424	0.1	)
(	-0.31999999999999995	0.023613551172322424	0.1	)
(	-0.29999999999999993	0.023613551172322424	0.1	)
(	-0.28	0.023613551172322424	0.1	)
(	-0.26	0.023613551172322424	0.1	)
(	-0.24	0.023613551172322424	0.1	)
(	-0.21999999999999997	0.023613551172322424	0.1	)
(	-0.19999999999999996	0.023613551172322424	0.1	)
(	-0.17999999999999994	0.023613551172322424	0.1	)
(	-0.16000000000000003	0.023613551172322424	0.1	)
(	-0.14	0.023613551172322424	0.1	)
(	-0.12	0.023613551172322424	0.1	)
(	-0.09999999999999998	0.023613551172322424	0.1	)
(	-0.07957790192427062	0.023040125951284976	0.1	)
(	-0.059155803848541265	0.02527565038468546	0.1	)
(	-0.038733705772811905	0.030320124472523878	0.1	)
(	-0.018311607697082552	0.03817354821480023	0.1	)
(	0.002110490378646801	0.04883592161151451	0.1	)
(	0.022532588454376168	0.062307244662666725	0.1	)
(	0.04295468653010551	0.07858751736825687	0.1	)
(	0.06337678460583487	0.09767673972828494	0.1	)
(	0.08379888268156424	0.11957491174275099	0.1	)
(	0.08379888268156424	0.11957491174275099	0.1	)
(	0.1005586592178771	0.13691018627713583	0.1	)
(	0.11731843575418995	0.15335156909188208	0.1	)
(	0.1340782122905028	0.16879171378452618	0.1	)
(	0.15083798882681565	0.18312981107369788	0.1	)
(	0.16759776536312848	0.19627224698668536	0.1	)
(	0.18435754189944134	0.20813321406855825	0.1	)
(	0.2011173184357542	0.21863527162224555	0.1	)
(	0.21787709497206703	0.22770985132173976	0.1	)
(	0.2346368715083799	0.2352977048972581	0.1	)
(	0.25139664804469275	0.24134929096940833	0.1	)
(	0.2681564245810056	0.24582509850670584	0.1	)
(	0.2849162011173184	0.24869590479457346	0.1	)
(	0.3016759776536313	0.24994296623153642	0.1	)
(	0.31843575418994413	0.24955814070689647	0.1	)
(	0.33519553072625696	0.24754394076087685	0.1	)
(	0.35195530726256985	0.24391351718015303	0.1	)
(	0.3687150837988827	0.23869057313587572	0.1	)
(	0.3854748603351955	0.23190920942478085	0.1	)
(	0.4022346368715084	0.22361370182381402	0.1	)
(	0.41899441340782123	0.21385821201192962	0.1	)
(	0.43575418994413406	0.20270643394646537	0.1	)
(	0.4525139664804469	0.19023117800291678	0.1	)
(	0.4692737430167598	0.1765138955932753	0.1	)
(	0.4860335195530726	0.16164414736671798	0.1	)
(	0.5027932960893855	0.14571901846478366	0.1	)
(	0.5195530726256983	0.12884248464885814	0.1	)
(	0.5363128491620112	0.11112473343854408	0.1	)
(	0.553072625698324	0.09268144469323114	0.1	)
(	0.5698324022346368	0.07363303533397277	0.1	)
(	0.5865921787709497	0.0541038731369111	0.1	)
(	0.6033519553072626	0.03422146473142211	0.1	)
(	0.6201117318435754	0.014115623104570244	0.1	)
(	0.6368715083798883	-0.006082379952733469	0.1	)
(	0.6536312849162011	-0.026240670924156016	0.1	)
(	0.6703910614525139	-0.0462276355750563	0.1	)
(	0.6871508379888268	-0.06591277826673919	0.1	)
(	0.7039106145251397	-0.08516757396735332	0.1	)
(	0.7206703910614525	-0.10386630739662533	0.1	)
(	0.7374301675977654	-0.12188689382561989	0.1	)
(	0.7541899441340782	-0.13911167617249418	0.1	)
(	0.770949720670391	-0.15542819318997994	0.1	)
(	0.7877094972067039	-0.17072991372906743	0.1	)
(	0.8044692737430168	-0.18491693228485534	0.1	)
(	0.8212290502793296	-0.19789662128332444	0.1	)
(	0.8379888268156425	-0.20958423585022767	0.1	)
(	0.8547486033519552	-0.21990346711353886	0.1	)
(	0.8715083798882681	-0.22878694042692876	0.1	)
(	0.888268156424581	-0.23617665526134687	0.1	)
(	0.9050279329608938	-0.24202436389264204	0.1	)
(	0.9217877094972067	-0.24629188641275554	0.1	)
(	0.9385474860335196	-0.2489513600077665	0.1	)
(	0.9553072625698323	-0.24998542087524492	0.1	)
(	0.9720670391061452	-0.24938731759316607	0.1	)
(	0.9888268156424581	-0.24716095520019707	0.1	)
(	1.005586592178771	-0.24332086969955366	0.1	)
(	1.0223463687150838	-0.2378921331528923	0.1	)
(	1.0391061452513966	-0.23091018998388302	0.1	)
(	1.0558659217877095	-0.22242062556024358	0.1	)
(	1.0726256983240223	-0.2124788685651715	0.1	)
(	1.089385474860335	-0.20114982910140042	0.1	)
(	1.106145251396648	-0.18850747489071548	0.1	)
(	1.1229050279329609	-0.17463434833593577	0.1	)
(	1.1396648044692737	-0.1596210275984823	0.1	)
(	1.1564245810055866	-0.14356553521017956	0.1	)
(	1.1731843575418994	-0.12657269808048516	0.1	)
(	1.1899441340782122	-0.10875346307768116	0.1	)
(	1.2067039106145252	-0.0902241726526282	0.1	)
(	1.223463687150838	-0.07110580523455928	0.1	)
(	1.2402234636871508	-0.05152318535839535	0.1	)
(	1.2569832402234637	-0.03160416868069552	0.1	)
(	1.2737430167597765	-0.011478807205301	0.1	)
(	1.2905027932960893	0.008721499831056936	0.1	)
(	1.3072625698324023	0.028864863869280364	0.1	)
(	1.324022346368715	0.04881976813323212	0.1	)
(	1.3407821229050279	0.06845592630768083	0.1	)
(	1.3575418994413408	0.08764513318251822	0.1	)
(	1.3743016759776536	0.1062621017093636	0.1	)
(	1.3910614525139664	0.12418528100538344	0.1	)
(	1.4078212290502794	0.1412976499635445	0.1	)
(	1.4245810055865922	0.15748748128779158	0.1	)
(	1.441340782122905	0.17264907096473758	0.1	)
(	1.458100558659218	0.18668342840911437	0.1	)
(	1.4748603351955307	0.19949892277700032	0.1	)
(	1.4916201117318435	0.21101188122702408	0.1	)
(	1.5083798882681565	0.22114713522347	0.1	)
(	1.5251396648044693	0.22983851131445512	0.1	)
(	1.541899441340782	0.2370292631808689	0.1	)
(	1.558659217877095	0.24267244213520936	0.1	)
(	1.5754189944134078	0.24673120365131737	0.1	)
(	1.5921787709497206	0.24917904792366433	0.1	)
(	1.6089385474860336	0.24999999288557198	0.1	)
(	1.6256983240223464	0.24918867855672266	0.1	)
(	1.6424581005586592	0.24675040203867113	0.1	)
(	1.659217877094972	0.24270108292987047	0.1	)
(	1.675977653631285	0.2370671593860193	0.1	)
(	1.6927374301675977	0.229885415504356	0.1	)
(	1.7094972067039105	0.22120274115891367	0.1	)
(	1.7262569832402235	0.21107582585478127	0.1	)
(	1.7430167597765363	0.19957078860020813	0.1	)
(	1.759776536312849	0.18676274621312894	0.1	)
(	1.776536312849162	0.17273532288065405	0.1	)
(	1.7932960893854748	0.15758010417362955	0.1	)
(	1.8100558659217876	0.14139603908102302	0.1	)
(	1.8268156424581006	0.12428879396827977	0.1	)
(	1.8435754189944134	0.10637006267767686	0.1	)
(	1.8603351955307261	0.08775683727505411	0.1	)
(	1.8770949720670391	0.06857064420424708	0.1	)
(	1.893854748603352	0.04893675083639755	0.1	)
(	1.9106145251396647	0.028983347594606832	0.1	)
(	1.9273743016759777	0.008840710993876608	0.1	)
(	1.9441340782122905	-0.011359646939122735	0.1	)
(	1.9608938547486032	-0.031485837312986924	0.1	)
(	1.9776536312849162	-0.05140645547907567	0.1	)
(	1.994413407821229	-0.0709914389773704	0.1	)
(	2.011173184357542	-0.09011291671913504	0.1	)
(	2.0279329608938546	-0.1086460438620279	0.1	)
(	2.0446927374301676	-0.12646981692674364	0.1	)
(	2.0614525139664805	-0.14346786383324497	0.1	)
(	2.078212290502793	-0.1595292036984219	0.1	)
(	2.094972067039106	-0.17454897143442324	0.1	)
(	2.111731843575419	-0.18842910241672953	0.1	)
(	2.1284916201117317	-0.20107897275175018	0.1	)
(	2.1452513966480447	-0.2124159909636108	0.1	)
(	2.1620111731843576	-0.2223661372369815	0.1	)
(	2.17877094972067	-0.23086444669521675	0.1	)
(	2.195530726256983	-0.2378554335584623	0.1	)
(	2.212290502793296	-0.24329345341238265	0.1	)
(	2.2290502793296088	-0.2471430012222478	0.1	)
(	2.2458100558659218	-0.24937894314663125	0.1	)
(	2.2625698324022347	-0.24998668063719873	0.1	)
(	2.2793296089385473	-0.2489622457531761	0.1	)
(	2.2960893854748603	-0.24631232706818254	0.1	)
(	2.3128491620111733	-0.2420542260002837	0.1	)
(	2.329608938547486	-0.2362157438503873	0.1	)
(	2.346368715083799	-0.22883500028650994	0.1	)
(	2.363128491620112	-0.21996018445904264	0.1	)
(	2.3798882681564244	-0.2096492403719871	0.1	)
(	2.3966480446927374	-0.19796948856438895	0.1	)
(	2.4134078212290504	-0.18499718657202524	0.1	)
(	2.430167597765363	-0.17081703103910478	0.1	)
(	2.446927374301676	-0.15552160473071355	0.1	)
(	2.463687150837989	-0.1392107720564854	0.1	)
(	2.4804469273743015	-0.12199102705214189	0.1	)
(	2.4972067039106145	-0.10397479807595211	0.1	)
(	2.5139664804469275	-0.08527971375978766	0.1	)
(	2.53072625698324	-0.06602783500738849	0.1	)
(	2.547486033519553	-0.04634485805416333	0.1	)
(	2.564245810055866	-0.026359293791776338	0.1	)
(	2.5810055865921786	-0.006201628715734517	0.1	)
(	2.5977653631284916	0.013996527025816349	0.1	)
(	2.6145251396648046	0.03410329891966176	0.1	)
(	2.631284916201117	0.05398740910114198	0.1	)
(	2.64804469273743	0.07351903347223496	0.1	)
(	2.664804469273743	0.09257064932793765	0.1	)
(	2.6815642458100557	0.11101786795677247	0.1	)
(	2.6983240223463687	0.12874024677933055	0.1	)
(	2.7150837988826817	0.14562207572236882	0.1	)
(	2.7318435754189943	0.16155313269420138	0.1	)
(	2.7486033519553073	0.17642940322885348	0.1	)
(	2.7653631284916202	0.1901537596003927	0.1	)
(	2.782122905027933	0.2026365949734804	0.1	)
(	2.798882681564246	0.21379640844974693	0.1	)
(	2.815642458100559	0.22356033719019955	0.1	)
(	2.8324022346368714	0.2318646321394202	0.1	)
(	2.8491620111731844	0.23865507424553023	0.1	)
(	2.8659217877094973	0.24388732845840352	0.1	)
(	2.88268156424581	0.24752723319486564	0.1	)
(	2.899441340782123	0.24955102338094617	0.1	)
(	2.916201117318436	0.2499454856149339	0.1	)
(	2.9329608938547485	0.24870804443817052	0.1	)
(	2.9537430167597765	0.24401322967648037	0.1	)
(	2.9745251396648045	0.23991020241222322	0.1	)
(	2.9953072625698325	0.23639896264539903	0.1	)
(	3.0160893854748605	0.23347951037600786	0.1	)
(	3.036871508379888	0.23115184560404972	0.1	)
(	3.057653631284916	0.22941596832952452	0.1	)
(	3.078435754189944	0.2282718785524323	0.1	)
(	3.099217877094972	0.22771957627277306	0.1	)
(	3.12	0.2277590614905468	0.1	)
(	3.12	0.2277590614905468	0.1	)
(	3.14	0.2277590614905468	0.1	)
(	3.16	0.2277590614905468	0.1	)
(	3.1799999999999997	0.2277590614905468	0.1	)
(	3.2	0.2277590614905468	0.1	)
(	3.2199999999999998	0.2277590614905468	0.1	)
(	3.24	0.2277590614905468	0.1	)
(	3.26	0.2277590614905468	0.1	)
(	3.2800000000000002	0.2277590614905468	0.1	)
(	3.3	0.2277590614905468	0.1	)
(	3.32	0.2277590614905468	0.1	)
(	3.34	0.2277590614905468	0.1	)
(	3.36	0.2277590614905468	0.1	)
(	3.38	0.2277590614905468	0.1	)
(	3.4	0.2277590614905468	0.1	)
(	3.42	0.2277590614905468	0.1	)
(	3.44	0.2277590614905468	0.1	)
(	3.46	0.2277590614905468	0.1	)
(	3.48	0.2277590614905468	0.1	)
(	3.5	0.2277590614905468	0.1	)
(	3.52	0.2277590614905468	0.1	)
(	3.54	0.2277590614905468	0.1	)
(	3.56	0.2277590614905468	0.1	)
(	3.58	0.2277590614905468	0.1	)
(	3.6	0.2277590614905468	0.1	)
(	3.62	0.2277590614905468	0.1	)
(	3.64	0.2277590614905468	0.1	)
(	3.66	0.2277590614905468	0.1	)
(	3.68	0.2277590614905468	0.1	)
(	3.7	0.2277590614905468	0.1	)
(	3.7199999999999998	0.2277590614905468	0.1	)
(	3.74	0.2277590614905468	0.1	)
(	3.76	0.2277590614905468	0.1	)
(	3.78	0.2277590614905468	0.1	)
(	3.8	0.2277590614905468	0.1	)
(	3.82	0.2277590614905468	0.1	)
(	3.84	0.2277590614905468	0.1	)
(	3.86	0.2277590614905468	0.1	)
(	3.88	0.2277590614905468	0.1	)
(	3.9	0.2277590614905468	0.1	)
(	3.92	0.2277590614905468	0.1	)
(	3.94	0.2277590614905468	0.1	)
(	3.96	0.2277590614905468	0.1	)
(	3.98	0.2277590614905468	0.1	)
(	4.0	0.2277590614905468	0.1	)
)
	polyLine 3 2 ((	-1.0	0.5236135511723224	0	)
(	-0.98	0.523774069752319	0	)
(	-0.96	0.5239345883323155	0	)
(	-0.94	0.5240951069123121	0	)
(	-0.92	0.5242556254923086	0	)
(	-0.9	0.5244161440723052	0	)
(	-0.88	0.5245766626523017	0	)
(	-0.86	0.5247371812322984	0	)
(	-0.84	0.524897699812295	0	)
(	-0.8200000000000001	0.5250582183922915	0	)
(	-0.8	0.525218736972288	0	)
(	-0.78	0.5253792555522846	0	)
(	-0.76	0.5255397741322811	0	)
(	-0.74	0.5257002927122777	0	)
(	-0.72	0.5258608112922742	0	)
(	-0.7	0.5260213298722708	0	)
(	-0.6799999999999999	0.5261818484522673	0	)
(	-0.6599999999999999	0.5263423670322639	0	)
(	-0.64	0.5265028856122604	0	)
(	-0.62	0.5266634041922571	0	)
(	-0.6	0.5268239227722536	0	)
(	-0.5800000000000001	0.5269844413522502	0	)
(	-0.56	0.5271449599322467	0	)
(	-0.54	0.5273054785122433	0	)
(	-0.52	0.5274659970922398	0	)
(	-0.5	0.5276265156722364	0	)
(	-0.48	0.527787034252233	0	)
(	-0.45999999999999996	0.5279475528322295	0	)
(	-0.43999999999999995	0.528108071412226	0	)
(	-0.42000000000000004	0.5282685899922226	0	)
(	-0.4	0.5284291085722191	0	)
(	-0.38	0.5285896271522158	0	)
(	-0.36	0.5287501457322124	0	)
(	-0.33999999999999997	0.5289106643122089	0	)
(	-0.31999999999999995	0.5290711828922054	0	)
(	-0.29999999999999993	0.529231701472202	0	)
(	-0.28	0.5293922200521985	0	)
(	-0.26	0.5295527386321951	0	)
(	-0.24	0.5297132572121916	0	)
(	-0.21999999999999997	0.5298737757921882	0	)
(	-0.19999999999999996	0.5300342943721847	0	)
(	-0.17999999999999994	0.5301948129521813	0	)
(	-0.16000000000000003	0.5303553315321778	0	)
(	-0.14	0.5305158501121745	0	)
(	-0.12	0.530676368692171	0	)
(	-0.09999999999999998	0.5308368872721676	0	)
(	-0.07957790192427062	0.5301964463775536	0	)
(	-0.059155803848541265	0.5332874238559592	0	)
(	-0.038733705772811905	0.5401098197073844	0	)
(	-0.018311607697082552	0.550663633931829	0	)
(	0.002110490378646801	0.5649488665292933	0	)
(	0.022532588454376168	0.5829655174997773	0	)
(	0.04295468653010551	0.6047135868432807	0	)
(	0.06337678460583487	0.6301930745598039	0	)
(	0.08379888268156424	0.6594039806493466	0	)
(	0.08379888268156424	0.6594039806493466	0	)
(	0.1005586592178771	0.6825134417073241	0	)
(	0.11731843575418995	0.704431265687731	0	)
(	0.1340782122905028	0.7250143502991947	0	)
(	0.15083798882681565	0.744128307813532	0	)
(	0.16759776536312848	0.7616483424882483	0	)
(	0.18435754189944134	0.7774600653625997	0	)
(	0.2011173184357542	0.7914602411073899	0	)
(	0.21787709497206703	0.8035574620522912	0	)
(	0.2346368715083799	0.8136727449899375	0	)
(	0.25139664804469275	0.8217400468602344	0	)
(	0.2681564245810056	0.8277066959479669	0	)
(	0.2849162011173184	0.8315337357783936	0	)
(	0.3016759776536313	0.8331961794655263	0	)
(	0.31843575418994413	0.8326831728524413	0	)
(	0.33519553072625696	0.8299980653784759	0	)
(	0.35195530726256985	0.8251583882106128	0	)
(	0.3687150837988827	0.8181957397818376	0	)
(	0.3854748603351955	0.8091555794837884	0	)
(	0.4022346368715084	0.7980969308606906	0	)
(	0.41899441340782123	0.7850919962424319	0	)
(	0.43575418994413406	0.7702256853328541	0	)
(	0.4525139664804469	0.7535950608311252	0	)
(	0.4692737430167598	0.7353087047057512	0	)
(	0.4860335195530726	0.7154860092588486	0	)
(	0.5027932960893855	0.6942563976093449	0	)
(	0.5195530726256983	0.6717584786846008	0	)
(	0.5363128491620112	0.6481391422375467	0	)
(	0.553072625698324	0.6235525997980002	0	)
(	0.5698324022346368	0.5981593778198278	0	)
(	0.5865921787709497	0.5721252695977317	0	)
(	0.6033519553072626	0.5456202527966374	0	)
(	0.6201117318435754	0.5188173796611713	0	)
(	0.6368715083798883	0.49189164715108996	0	)
(	0.6536312849162011	0.4650188543795968	0	)
(	0.6703910614525139	0.43837445481436416	0	)
(	0.6871508379888268	0.41213241073529017	0	)
(	0.7039106145251397	0.3864640574282773	0	)
(	0.7206703910614525	0.36153698453074984	0	)
(	0.7374301675977654	0.3375139418326525	0	)
(	0.7541899441340782	0.31455177667699386	0	)
(	0.770949720670391	0.2928004098976852	0	)
(	0.7877094972067039	0.27240185698081654	0	)
(	0.8044692737430168	0.25348930084024435	0	)
(	0.8212290502793296	0.23618622226137237	0	)
(	0.8379888268156425	0.22060559369049149	0	)
(	0.8547486033519552	0.20684914163345947	0	)
(	0.8715083798882681	0.1950066824795439	0	)
(	0.888268156424581	0.1851555360868627	0	)
(	0.9050279329608938	0.17736002095814252	0	)
(	0.9217877094972067	0.1716710343028121	0	)
(	0.9385474860335196	0.16812571972722118	0	)
(	0.9553072625698323	0.16674722472264702	0	)
(	0.9720670391061452	0.16754454953445969	0	)
(	0.9888268156424581	0.17051248839918381	0	)
(	1.005586592178771	0.17563166353312243	0	)
(	1.0223463687150838	0.18286865165063088	0	)
(	1.0391061452513966	0.19217620218599696	0	)
(	1.0558659217877095	0.20349354579414924	0	)