/*--------------------------------*- C++ -*----------------------------------*\\
/*--------------------------------*- C++ -*----------------------------------*\\
| =========                 |                                                 |
| \\\\      /  F ield         | OpenFOAM: The Open Source CFD Toolbox           |
|  \\\\    /   O peration     | Version:  v2012                                 |
|   \\\\  /    A nd           | Website:  www.openfoam.com                      |
|    \\\\/     M anipulation  |                                                 |
\\*---------------------------------------------------------------------------*/
FoamFile
{
    version     2.0;
    format      ascii;
    class       dictionary;
    object      blockMeshDict;
}
// * * * * * * * * * * * * * * * * * * * * * * * * * * * * * * * * * * * * * //

scale   0.01;

xmin -1;
xmax 5;
ymin 0;
ymax 0.5;
zmin 0;
zmax 0.1;

vertices
(
    (-1.00000000 -0.20863659 0.00000000)
    (4.00000000 -0.15258809 0.00000000)
    (4.00000000 0.34741191 0.00000000)
    (-1.00000000 0.29136341 0.00000000)
    (-1.00000000 -0.20863659 0.10000000)
    (4.00000000 -0.15258809 0.10000000)
    (4.00000000 0.34741191 0.10000000)
    (-1.00000000 0.29136341 0.10000000)
);

blocks
(
    hex (0 1 2 3 4 5 6 7) (200 20 1) simpleGrading (1 1 1)
);

edges
(
	polyLine 0 1
	(
		(-1.00000000 -0.20863659 0.00000000)
		(-0.98000000 -0.20863659 0.00000000)
		(-0.96000000 -0.20863659 0.00000000)
		(-0.94000000 -0.20863659 0.00000000)
		(-0.92000000 -0.20863659 0.00000000)
		(-0.90000000 -0.20863659 0.00000000)
		(-0.88000000 -0.20863659 0.00000000)
		(-0.86000000 -0.20863659 0.00000000)
		(-0.84000000 -0.20863659 0.00000000)
		(-0.82000000 -0.20863659 0.00000000)
		(-0.80000000 -0.20863659 0.00000000)
		(-0.78000000 -0.20863659 0.00000000)
		(-0.76000000 -0.20863659 0.00000000)
		(-0.74000000 -0.20863659 0.00000000)
		(-0.72000000 -0.20863659 0.00000000)
		(-0.70000000 -0.20863659 0.00000000)
		(-0.68000000 -0.20863659 0.00000000)
		(-0.66000000 -0.20863659 0.00000000)
		(-0.64000000 -0.20863659 0.00000000)
		(-0.62000000 -0.20863659 0.00000000)
		(-0.60000000 -0.20863659 0.00000000)
		(-0.58000000 -0.20863659 0.00000000)
		(-0.56000000 -0.20863659 0.00000000)
		(-0.54000000 -0.20863659 0.00000000)
		(-0.52000000 -0.20863659 0.00000000)
		(-0.50000000 -0.20863659 0.00000000)
		(-0.48000000 -0.20863659 0.00000000)
		(-0.46000000 -0.20863659 0.00000000)
		(-0.44000000 -0.20863659 0.00000000)
		(-0.42000000 -0.20863659 0.00000000)
		(-0.40000000 -0.20863659 0.00000000)
		(-0.38000000 -0.20863659 0.00000000)
		(-0.36000000 -0.20863659 0.00000000)
		(-0.34000000 -0.20863659 0.00000000)
		(-0.32000000 -0.20863659 0.00000000)
		(-0.30000000 -0.20863659 0.00000000)
		(-0.28000000 -0.20863659 0.00000000)
		(-0.26000000 -0.20863659 0.00000000)
		(-0.24000000 -0.20863659 0.00000000)
		(-0.22000000 -0.20863659 0.00000000)
		(-0.20000000 -0.20863659 0.00000000)
		(-0.18000000 -0.20863659 0.00000000)
		(-0.16000000 -0.20863659 0.00000000)
		(-0.14000000 -0.20863659 0.00000000)
		(-0.12000000 -0.20863659 0.00000000)
		(-0.10000000 -0.20863659 0.00000000)
		(-0.08162011 -0.20897754 0.00000000)
		(-0.06324022 -0.21000042 0.00000000)
		(-0.04486034 -0.21170521 0.00000000)
		(-0.02648045 -0.21409192 0.00000000)
		(-0.00810056 -0.21716054 0.00000000)
		(0.01027933 -0.22091108 0.00000000)
		(0.02865922 -0.22534354 0.00000000)
		(0.04703911 -0.23045791 0.00000000)
		(0.06541899 -0.23625420 0.00000000)
		(0.08379888 -0.24273241 0.00000000)
		(0.10055866 -0.24625283 0.00000000)
		(0.11731844 -0.24862310 0.00000000)
		(0.13407821 -0.24983215 0.00000000)
		(0.15083799 -0.24987433 0.00000000)
		(0.16759777 -0.24874945 0.00000000)
		(0.18435754 -0.24646276 0.00000000)
		(0.20111732 -0.24302494 0.00000000)
		(0.21787709 -0.23845204 0.00000000)
		(0.23463687 -0.23276543 0.00000000)
		(0.25139665 -0.22599167 0.00000000)
		(0.26815642 -0.21816239 0.00000000)
		(0.28491620 -0.20931415 0.00000000)
		(0.30167598 -0.19948830 0.00000000)
		(0.31843575 -0.18873071 0.00000000)
		(0.33519553 -0.17709164 0.00000000)
		(0.35195531 -0.16462544 0.00000000)
		(0.36871508 -0.15139034 0.00000000)
		(0.38547486 -0.13744816 0.00000000)
		(0.40223464 -0.12286401 0.00000000)
		(0.41899441 -0.10770601 0.00000000)
		(0.43575419 -0.09204496 0.00000000)
		(0.45251397 -0.07595401 0.00000000)
		(0.46927374 -0.05950830 0.00000000)
		(0.48603352 -0.04278466 0.00000000)
		(0.50279330 -0.02586118 0.00000000)
		(0.51955307 -0.00881692 0.00000000)
		(0.53631285 0.00826853 0.00000000)
		(0.55307263 0.02531535 0.00000000)
		(0.56983240 0.04224394 0.00000000)
		(0.58659218 0.05897522 0.00000000)
		(0.60335196 0.07543105 0.00000000)
		(0.62011173 0.09153458 0.00000000)
		(0.63687151 0.10721058 0.00000000)
		(0.65363128 0.12238584 0.00000000)
		(0.67039106 0.13698949 0.00000000)
		(0.68715084 0.15095332 0.00000000)
		(0.70391061 0.16421210 0.00000000)
		(0.72067039 0.17670391 0.00000000)
		(0.73743017 0.18837041 0.00000000)
		(0.75418994 0.19915710 0.00000000)
		(0.77094972 0.20901361 0.00000000)
		(0.78770950 0.21789390 0.00000000)
		(0.80446927 0.22575649 0.00000000)
		(0.82122905 0.23256467 0.00000000)
		(0.83798883 0.23828663 0.00000000)
		(0.85474860 0.24289564 0.00000000)
		(0.87150838 0.24637019 0.00000000)
		(0.88826816 0.24869404 0.00000000)
		(0.90502793 0.24985633 0.00000000)
		(0.92178771 0.24985165 0.00000000)
		(0.93854749 0.24868001 0.00000000)
		(0.95530726 0.24634688 0.00000000)
		(0.97206704 0.24286317 0.00000000)
		(0.98882682 0.23824513 0.00000000)
		(1.00558659 0.23251435 0.00000000)
		(1.02234637 0.22569759 0.00000000)
		(1.03910615 0.21782668 0.00000000)
		(1.05586592 0.20893839 0.00000000)
		(1.07262570 0.19907423 0.00000000)
		(1.08938547 0.18828027 0.00000000)
		(1.10614525 0.17660693 0.00000000)
		(1.12290503 0.16410873 0.00000000)
		(1.13966480 0.15084405 0.00000000)
		(1.15642458 0.13687483 0.00000000)
		(1.17318436 0.12226632 0.00000000)
		(1.18994413 0.10708676 0.00000000)
		(1.20670391 0.09140703 0.00000000)
		(1.22346369 0.07530038 0.00000000)
		(1.24022346 0.05884203 0.00000000)
		(1.25698324 0.04210886 0.00000000)
		(1.27374302 0.02517900 0.00000000)
		(1.29050279 0.00813155 0.00000000)
		(1.30726257 -0.00895388 0.00000000)
		(1.32402235 -0.02599749 0.00000000)
		(1.34078212 -0.04291968 0.00000000)
		(1.35754190 -0.05964140 0.00000000)
		(1.37430168 -0.07608457 0.00000000)
		(1.39106145 -0.09217237 0.00000000)
		(1.40782123 -0.10782967 0.00000000)
		(1.42458101 -0.12298335 0.00000000)
		(1.44134078 -0.13756262 0.00000000)
		(1.45810056 -0.15149938 0.00000000)
		(1.47486034 -0.16472856 0.00000000)
		(1.49162011 -0.17718835 0.00000000)
		(1.50837989 -0.18882056 0.00000000)
		(1.52513966 -0.19957087 0.00000000)
		(1.54189944 -0.20938906 0.00000000)
		(1.55865922 -0.21822928 0.00000000)
		(1.57541899 -0.22605024 0.00000000)
		(1.59217877 -0.23281540 0.00000000)
		(1.60893855 -0.23849318 0.00000000)
		(1.62569832 -0.24305705 0.00000000)
		(1.64245810 -0.24648569 0.00000000)
		(1.65921788 -0.24876310 0.00000000)
		(1.67597765 -0.24987864 0.00000000)
		(1.69273743 -0.24982709 0.00000000)
		(1.70949721 -0.24860870 0.00000000)
		(1.72625698 -0.24622915 0.00000000)
		(1.74301676 -0.24269957 0.00000000)
		(1.75977654 -0.23803643 0.00000000)
		(1.77653631 -0.23226152 0.00000000)
		(1.79329609 -0.22540181 0.00000000)
		(1.81005587 -0.21748933 0.00000000)
		(1.82681564 -0.20856105 0.00000000)
		(1.84357542 -0.19865866 0.00000000)
		(1.86033520 -0.18782842 0.00000000)
		(1.87709497 -0.17612090 0.00000000)
		(1.89385475 -0.16359079 0.00000000)
		(1.91061453 -0.15029662 0.00000000)
		(1.92737430 -0.13630047 0.00000000)
		(1.94413408 -0.12166771 0.00000000)
		(1.96089385 -0.10646669 0.00000000)
		(1.97765363 -0.09076841 0.00000000)
		(1.99441341 -0.07464619 0.00000000)
		(2.01117318 -0.05817532 0.00000000)
		(2.02793296 -0.04143274 0.00000000)
		(2.04469274 -0.02449664 0.00000000)
		(2.06145251 -0.00744613 0.00000000)
		(2.07821229 0.00963916 0.00000000)
		(2.09497207 0.02667943 0.00000000)
		(2.11173184 0.04359509 0.00000000)
		(2.12849162 0.06030714 0.00000000)
		(2.14525140 0.07673751 0.00000000)
		(2.16201117 0.09280947 0.00000000)
		(2.17877095 0.10844796 0.00000000)
		(2.19553073 0.12357993 0.00000000)
		(2.21229050 0.13813471 0.00000000)
		(2.22905028 0.15204431 0.00000000)
		(2.24581006 0.16524377 0.00000000)
		(2.26256983 0.17767145 0.00000000)
		(2.27932961 0.18926930 0.00000000)
		(2.29608939 0.19998314 0.00000000)
		(2.31284916 0.20976294 0.00000000)
		(2.32960894 0.21856302 0.00000000)
		(2.34636872 0.22634228 0.00000000)
		(2.36312849 0.23306438 0.00000000)
		(2.37988827 0.23869794 0.00000000)
		(2.39664804 0.24321662 0.00000000)
		(2.41340782 0.24659935 0.00000000)
		(2.43016760 0.24883030 0.00000000)
		(2.44692737 0.24989906 0.00000000)
		(2.46368715 0.24980065 0.00000000)
		(2.48044693 0.24853551 0.00000000)
		(2.49720670 0.24610957 0.00000000)
		(2.51396648 0.24253414 0.00000000)
		(2.53072626 0.23782594 0.00000000)
		(2.54748603 0.23200694 0.00000000)
		(2.56424581 0.22510433 0.00000000)
		(2.58100559 0.21715035 0.00000000)
		(2.59776536 0.20818214 0.00000000)
		(2.61452514 0.19824160 0.00000000)
		(2.63128492 0.18737515 0.00000000)
		(2.64804469 0.17563354 0.00000000)
		(2.66480447 0.16307162 0.00000000)
		(2.68156425 0.14974806 0.00000000)
		(2.69832402 0.13572508 0.00000000)
		(2.71508380 0.12106819 0.00000000)
		(2.73184358 0.10584583 0.00000000)
		(2.74860335 0.09012911 0.00000000)
		(2.76536313 0.07399143 0.00000000)
		(2.78212291 0.05750817 0.00000000)
		(2.79888268 0.04075631 0.00000000)
		(2.81564246 0.02381409 0.00000000)
		(2.83240223 0.00676065 0.00000000)
		(2.84916201 -0.01032437 0.00000000)
		(2.86592179 -0.02736117 0.00000000)
		(2.88268156 -0.04427018 0.00000000)
		(2.89944134 -0.06097241 0.00000000)
		(2.91620112 -0.07738987 0.00000000)
		(2.93296089 -0.09344587 0.00000000)
		(2.95166480 -0.10468290 0.00000000)
		(2.97036872 -0.11473707 0.00000000)
		(2.98907263 -0.12360841 0.00000000)
		(3.00777654 -0.13129689 0.00000000)
		(3.02648045 -0.13780254 0.00000000)
		(3.04518436 -0.14312534 0.00000000)
		(3.06388827 -0.14726529 0.00000000)
		(3.08259218 -0.15022240 0.00000000)
		(3.10129609 -0.15199667 0.00000000)
		(3.12000000 -0.15258809 0.00000000)
		(3.14000000 -0.15258809 0.00000000)
		(3.16000000 -0.15258809 0.00000000)
		(3.18000000 -0.15258809 0.00000000)
		(3.20000000 -0.15258809 0.00000000)
		(3.22000000 -0.15258809 0.00000000)
		(3.24000000 -0.15258809 0.00000000)
		(3.26000000 -0.15258809 0.00000000)
		(3.28000000 -0.15258809 0.00000000)
		(3.30000000 -0.15258809 0.00000000)
		(3.32000000 -0.15258809 0.00000000)
		(3.34000000 -0.15258809 0.00000000)
		(3.36000000 -0.15258809 0.00000000)
		(3.38000000 -0.15258809 0.00000000)
		(3.40000000 -0.15258809 0.00000000)
		(3.42000000 -0.15258809 0.00000000)
		(3.44000000 -0.15258809 0.00000000)
		(3.46000000 -0.15258809 0.00000000)
		(3.48000000 -0.15258809 0.00000000)
		(3.50000000 -0.15258809 0.00000000)
		(3.52000000 -0.15258809 0.00000000)
		(3.54000000 -0.15258809 0.00000000)
		(3.56000000 -0.15258809 0.00000000)
		(3.58000000 -0.15258809 0.00000000)
		(3.60000000 -0.15258809 0.00000000)
		(3.62000000 -0.15258809 0.00000000)
		(3.64000000 -0.15258809 0.00000000)
		(3.66000000 -0.15258809 0.00000000)
		(3.68000000 -0.15258809 0.00000000)
		(3.70000000 -0.15258809 0.00000000)
		(3.72000000 -0.15258809 0.00000000)
		(3.74000000 -0.15258809 0.00000000)
		(3.76000000 -0.15258809 0.00000000)
		(3.78000000 -0.15258809 0.00000000)
		(3.80000000 -0.15258809 0.00000000)
		(3.82000000 -0.15258809 0.00000000)
		(3.84000000 -0.15258809 0.00000000)
		(3.86000000 -0.15258809 0.00000000)
		(3.88000000 -0.15258809 0.00000000)
		(3.90000000 -0.15258809 0.00000000)
		(3.92000000 -0.15258809 0.00000000)
		(3.94000000 -0.15258809 0.00000000)
		(3.96000000 -0.15258809 0.00000000)
		(3.98000000 -0.15258809 0.00000000)
		(4.00000000 -0.15258809 0.00000000)
	)
	polyLine 4 5
	(
		(-1.00000000 -0.20863659 0.10000000)
		(-0.98000000 -0.20863659 0.10000000)
		(-0.96000000 -0.20863659 0.10000000)
		(-0.94000000 -0.20863659 0.10000000)
		(-0.92000000 -0.20863659 0.10000000)
		(-0.90000000 -0.20863659 0.10000000)
		(-0.88000000 -0.20863659 0.10000000)
		(-0.86000000 -0.20863659 0.10000000)
		(-0.84000000 -0.20863659 0.10000000)
		(-0.82000000 -0.20863659 0.10000000)
		(-0.80000000 -0.20863659 0.10000000)
		(-0.78000000 -0.20863659 0.10000000)
		(-0.76000000 -0.20863659 0.10000000)
		(-0.74000000 -0.20863659 0.10000000)
		(-0.72000000 -0.20863659 0.10000000)
		(-0.70000000 -0.20863659 0.10000000)
		(-0.68000000 -0.20863659 0.10000000)
		(-0.66000000 -0.20863659 0.10000000)
		(-0.64000000 -0.20863659 0.10000000)
		(-0.62000000 -0.20863659 0.10000000)
		(-0.60000000 -0.20863659 0.10000000)
		(-0.58000000 -0.20863659 0.10000000)
		(-0.56000000 -0.20863659 0.10000000)
		(-0.54000000 -0.20863659 0.10000000)
		(-0.52000000 -0.20863659 0.10000000)
		(-0.50000000 -0.20863659 0.10000000)
		(-0.48000000 -0.20863659 0.10000000)
		(-0.46000000 -0.20863659 0.10000000)
		(-0.44000000 -0.20863659 0.10000000)
		(-0.42000000 -0.20863659 0.10000000)
		(-0.40000000 -0.20863659 0.10000000)
		(-0.38000000 -0.20863659 0.10000000)
		(-0.36000000 -0.20863659 0.10000000)
		(-0.34000000 -0.20863659 0.10000000)
		(-0.32000000 -0.20863659 0.10000000)
		(-0.30000000 -0.20863659 0.10000000)
		(-0.28000000 -0.20863659 0.10000000)
		(-0.26000000 -0.20863659 0.10000000)
		(-0.24000000 -0.20863659 0.10000000)
		(-0.22000000 -0.20863659 0.10000000)
		(-0.20000000 -0.20863659 0.10000000)
		(-0.18000000 -0.20863659 0.10000000)
		(-0.16000000 -0.20863659 0.10000000)
		(-0.14000000 -0.20863659 0.10000000)
		(-0.12000000 -0.20863659 0.10000000)
		(-0.10000000 -0.20863659 0.10000000)
		(-0.08162011 -0.20897754 0.10000000)
		(-0.06324022 -0.21000042 0.10000000)
		(-0.04486034 -0.21170521 0.10000000)
		(-0.02648045 -0.21409192 0.10000000)
		(-0.00810056 -0.21716054 0.10000000)
		(0.01027933 -0.22091108 0.10000000)
		(0.02865922 -0.22534354 0.10000000)
		(0.04703911 -0.23045791 0.10000000)
		(0.06541899 -0.23625420 0.10000000)
		(0.08379888 -0.24273241 0.10000000)
		(0.10055866 -0.24625283 0.10000000)
		(0.11731844 -0.24862310 0.10000000)
		(0.13407821 -0.24983215 0.10000000)
		(0.15083799 -0.24987433 0.10000000)
		(0.16759777 -0.24874945 0.10000000)
		(0.18435754 -0.24646276 0.10000000)
		(0.20111732 -0.24302494 0.10000000)
		(0.21787709 -0.23845204 0.10000000)
		(0.23463687 -0.23276543 0.10000000)
		(0.25139665 -0.22599167 0.10000000)
		(0.26815642 -0.21816239 0.10000000)
		(0.28491620 -0.20931415 0.10000000)
		(0.30167598 -0.19948830 0.10000000)
		(0.31843575 -0.18873071 0.10000000)
		(0.33519553 -0.17709164 0.10000000)
		(0.35195531 -0.16462544 0.10000000)
		(0.36871508 -0.15139034 0.10000000)
		(0.38547486 -0.13744816 0.10000000)
		(0.40223464 -0.12286401 0.10000000)
		(0.41899441 -0.10770601 0.10000000)
		(0.43575419 -0.09204496 0.10000000)
		(0.45251397 -0.07595401 0.10000000)
		(0.46927374 -0.05950830 0.10000000)
		(0.48603352 -0.04278466 0.10000000)
		(0.50279330 -0.02586118 0.10000000)
		(0.51955307 -0.00881692 0.10000000)
		(0.53631285 0.00826853 0.10000000)
		(0.55307263 0.02531535 0.10000000)
		(0.56983240 0.04224394 0.10000000)
		(0.58659218 0.05897522 0.10000000)
		(0.60335196 0.07543105 0.10000000)
		(0.62011173 0.09153458 0.10000000)
		(0.63687151 0.10721058 0.10000000)
		(0.65363128 0.12238584 0.10000000)
		(0.67039106 0.13698949 0.10000000)
		(0.68715084 0.15095332 0.10000000)
		(0.70391061 0.16421210 0.10000000)
		(0.72067039 0.17670391 0.10000000)
		(0.73743017 0.18837041 0.10000000)
		(0.75418994 0.19915710 0.10000000)
		(0.77094972 0.20901361 0.10000000)
		(0.78770950 0.21789390 0.10000000)
		(0.80446927 0.22575649 0.10000000)
		(0.82122905 0.23256467 0.10000000)
		(0.83798883 0.23828663 0.10000000)
		(0.85474860 0.24289564 0.10000000)
		(0.87150838 0.24637019 0.10000000)
		(0.88826816 0.24869404 0.10000000)
		(0.90502793 0.24985633 0.10000000)
		(0.92178771 0.24985165 0.10000000)
		(0.93854749 0.24868001 0.10000000)
		(0.95530726 0.24634688 0.10000000)
		(0.97206704 0.24286317 0.10000000)
		(0.98882682 0.23824513 0.10000000)
		(1.00558659 0.23251435 0.10000000)
		(1.02234637 0.22569759 0.10000000)
		(1.03910615 0.21782668 0.10000000)
		(1.05586592 0.20893839 0.10000000)
		(1.07262570 0.19907423 0.10000000)
		(1.08938547 0.18828027 0.10000000)
		(1.10614525 0.17660693 0.10000000)
		(1.12290503 0.16410873 0.10000000)
		(1.13966480 0.15084405 0.10000000)
		(1.15642458 0.13687483 0.10000000)
		(1.17318436 0.12226632 0.10000000)
		(1.18994413 0.10708676 0.10000000)
		(1.20670391 0.09140703 0.10000000)
		(1.22346369 0.07530038 0.10000000)
		(1.24022346 0.05884203 0.10000000)
		(1.25698324 0.04210886 0.10000000)
		(1.27374302 0.02517900 0.10000000)
		(1.29050279 0.00813155 0.10000000)
		(1.30726257 -0.00895388 0.10000000)
		(1.32402235 -0.02599749 0.10000000)
		(1.34078212 -0.04291968 0.10000000)
		(1.35754190 -0.05964140 0.10000000)
		(1.37430168 -0.07608457 0.10000000)
		(1.39106145 -0.09217237 0.10000000)
		(1.40782123 -0.10782967 0.10000000)
		(1.42458101 -0.12298335 0.10000000)
		(1.44134078 -0.13756262 0.10000000)
		(1.45810056 -0.15149938 0.10000000)
		(1.47486034 -0.16472856 0.10000000)
		(1.49162011 -0.17718835 0.10000000)
		(1.50837989 -0.18882056 0.10000000)
		(1.52513966 -0.19957087 0.10000000)
		(1.54189944 -0.20938906 0.10000000)
		(1.55865922 -0.21822928 0.10000000)
		(1.57541899 -0.22605024 0.10000000)
		(1.59217877 -0.23281540 0.10000000)
		(1.60893855 -0.23849318 0.10000000)
		(1.62569832 -0.24305705 0.10000000)
		(1.64245810 -0.24648569 0.10000000)
		(1.65921788 -0.24876310 0.10000000)
		(1.67597765 -0.24987864 0.10000000)
		(1.69273743 -0.24982709 0.10000000)
		(1.70949721 -0.24860870 0.10000000)
		(1.72625698 -0.24622915 0.10000000)
		(1.74301676 -0.24269957 0.10000000)
		(1.75977654 -0.23803643 0.10000000)
		(1.77653631 -0.23226152 0.10000000)
		(1.79329609 -0.22540181 0.10000000)
		(1.81005587 -0.21748933 0.10000000)
		(1.82681564 -0.20856105 0.10000000)
		(1.84357542 -0.19865866 0.10000000)
		(1.86033520 -0.18782842 0.10000000)
		(1.87709497 -0.17612090 0.10000000)
		(1.89385475 -0.16359079 0.10000000)
		(1.91061453 -0.15029662 0.10000000)
		(1.92737430 -0.13630047 0.10000000)
		(1.94413408 -0.12166771 0.10000000)
		(1.96089385 -0.10646669 0.10000000)
		(1.97765363 -0.09076841 0.10000000)
		(1.99441341 -0.07464619 0.10000000)
		(2.01117318 -0.05817532 0.10000000)
		(2.02793296 -0.04143274 0.10000000)
		(2.04469274 -0.02449664 0.10000000)
		(2.06145251 -0.00744613 0.10000000)
		(2.07821229 0.00963916 0.10000000)
		(2.09497207 0.02667943 0.10000000)
		(2.11173184 0.04359509 0.10000000)
		(2.12849162 0.06030714 0.10000000)
		(2.14525140 0.07673751 0.10000000)
		(2.16201117 0.09280947 0.10000000)
		(2.17877095 0.10844796 0.10000000)
		(2.19553073 0.12357993 0.10000000)
		(2.21229050 0.13813471 0.10000000)
		(2.22905028 0.15204431 0.10000000)
		(2.24581006 0.16524377 0.10000000)
		(2.26256983 0.17767145 0.10000000)
		(2.27932961 0.18926930 0.10000000)
		(2.29608939 0.19998314 0.10000000)
		(2.31284916 0.20976294 0.10000000)
		(2.32960894 0.21856302 0.10000000)
		(2.34636872 0.22634228 0.10000000)
		(2.36312849 0.23306438 0.10000000)
		(2.37988827 0.23869794 0.10000000)
		(2.39664804 0.24321662 0.10000000)
		(2.41340782 0.24659935 0.10000000)
		(2.43016760 0.24883030 0.10000000)
		(2.44692737 0.24989906 0.10000000)
		(2.46368715 0.24980065 0.10000000)
		(2.48044693 0.24853551 0.10000000)
		(2.49720670 0.24610957 0.10000000)
		(2.51396648 0.24253414 0.10000000)
		(2.53072626 0.23782594 0.10000000)
		(2.54748603 0.23200694 0.10000000)
		(2.56424581 0.22510433 0.10000000)
		(2.58100559 0.21715035 0.10000000)
		(2.59776536 0.20818214 0.10000000)
		(2.61452514 0.19824160 0.10000000)
		(2.63128492 0.18737515 0.10000000)
		(2.64804469 0.17563354 0.10000000)
		(2.66480447 0.16307162 0.10000000)
		(2.68156425 0.14974806 0.10000000)
		(2.69832402 0.13572508 0.10000000)
		(2.71508380 0.12106819 0.10000000)
		(2.73184358 0.10584583 0.10000000)
		(2.74860335 0.09012911 0.10000000)
		(2.76536313 0.07399143 0.10000000)
		(2.78212291 0.05750817 0.10000000)
		(2.79888268 0.04075631 0.10000000)
		(2.81564246 0.02381409 0.10000000)
		(2.83240223 0.00676065 0.10000000)
		(2.84916201 -0.01032437 0.10000000)
		(2.86592179 -0.02736117 0.10000000)
		(2.88268156 -0.04427018 0.10000000)
		(2.89944134 -0.06097241 0.10000000)
		(2.91620112 -0.07738987 0.10000000)
		(2.93296089 -0.09344587 0.10000000)
		(2.95166480 -0.10468290 0.10000000)
		(2.97036872 -0.11473707 0.10000000)
		(2.98907263 -0.12360841 0.10000000)
		(3.00777654 -0.13129689 0.10000000)
		(3.02648045 -0.13780254 0.10000000)
		(3.04518436 -0.14312534 0.10000000)
		(3.06388827 -0.14726529 0.10000000)
		(3.08259218 -0.15022240 0.10000000)
		(3.10129609 -0.15199667 0.10000000)
		(3.12000000 -0.15258809 0.10000000)
		(3.14000000 -0.15258809 0.10000000)
		(3.16000000 -0.15258809 0.10000000)
		(3.18000000 -0.15258809 0.10000000)
		(3.20000000 -0.15258809 0.10000000)
		(3.22000000 -0.15258809 0.10000000)
		(3.24000000 -0.15258809 0.10000000)
		(3.26000000 -0.15258809 0.10000000)
		(3.28000000 -0.15258809 0.10000000)
		(3.30000000 -0.15258809 0.10000000)
		(3.32000000 -0.15258809 0.10000000)
		(3.34000000 -0.15258809 0.10000000)
		(3.36000000 -0.15258809 0.10000000)
		(3.38000000 -0.15258809 0.10000000)
		(3.40000000 -0.15258809 0.10000000)
		(3.42000000 -0.15258809 0.10000000)
		(3.44000000 -0.15258809 0.10000000)
		(3.46000000 -0.15258809 0.10000000)
		(3.48000000 -0.15258809 0.10000000)
		(3.50000000 -0.15258809 0.10000000)
		(3.52000000 -0.15258809 0.10000000)
		(3.54000000 -0.15258809 0.10000000)
		(3.56000000 -0.15258809 0.10000000)
		(3.58000000 -0.15258809 0.10000000)
		(3.60000000 -0.15258809 0.10000000)
		(3.62000000 -0.15258809 0.10000000)
		(3.64000000 -0.15258809 0.10000000)
		(3.66000000 -0.15258809 0.10000000)
		(3.68000000 -0.15258809 0.10000000)
		(3.70000000 -0.15258809 0.10000000)
		(3.72000000 -0.15258809 0.10000000)
		(3.74000000 -0.15258809 0.10000000)
		(3.76000000 -0.15258809 0.10000000)
		(3.78000000 -0.15258809 0.10000000)
		(3.80000000 -0.15258809 0.10000000)
		(3.82000000 -0.15258809 0.10000000)
		(3.84000000 -0.15258809 0.10000000)
		(3.86000000 -0.15258809 0.10000000)
		(3.88000000 -0.15258809 0.10000000)
		(3.90000000 -0.15258809 0.10000000)
		(3.92000000 -0.15258809 0.10000000)
		(3.94000000 -0.15258809 0.10000000)
		(3.96000000 -0.15258809 0.10000000)
		(3.98000000 -0.15258809 0.10000000)
		(4.00000000 -0.15258809 0.10000000)
	)
	polyLine 3 2
	(
		(-1.00000000 0.29136341 0.00000000)
		(-0.98000000 0.29101708 0.00000000)
		(-0.96000000 0.29067074 0.00000000)
		(-0.94000000 0.29032441 0.00000000)
		(-0.92000000 0.28997807 0.00000000)
		(-0.90000000 0.28963174 0.00000000)
		(-0.88000000 0.28928540 0.00000000)
		(-0.86000000 0.28893906 0.00000000)
		(-0.84000000 0.28859273 0.00000000)
		(-0.82000000 0.28824639 0.00000000)
		(-0.80000000 0.28790006 0.00000000)
		(-0.78000000 0.28755372 0.00000000)
		(-0.76000000 0.28720738 0.00000000)
		(-0.74000000 0.28686105 0.00000000)
		(-0.72000000 0.28651471 0.00000000)
		(-0.70000000 0.28616838 0.00000000)
		(-0.68000000 0.28582204 0.00000000)
		(-0.66000000 0.28547570 0.00000000)
		(-0.64000000 0.28512937 0.00000000)
		(-0.62000000 0.28478303 0.00000000)
		(-0.60000000 0.28443670 0.00000000)
		(-0.58000000 0.28409036 0.00000000)
		(-0.56000000 0.28374403 0.00000000)
		(-0.54000000 0.28339769 0.00000000)
		(-0.52000000 0.28305135 0.00000000)
		(-0.50000000 0.28270502 0.00000000)
		(-0.48000000 0.28235868 0.00000000)
		(-0.46000000 0.28201235 0.00000000)
		(-0.44000000 0.28166601 0.00000000)
		(-0.42000000 0.28131967 0.00000000)
		(-0.40000000 0.28097334 0.00000000)
		(-0.38000000 0.28062700 0.00000000)
		(-0.36000000 0.28028067 0.00000000)
		(-0.34000000 0.27993433 0.00000000)
		(-0.32000000 0.27958799 0.00000000)
		(-0.30000000 0.27924166 0.00000000)
		(-0.28000000 0.27889532 0.00000000)
		(-0.26000000 0.27854899 0.00000000)
		(-0.24000000 0.27820265 0.00000000)
		(-0.22000000 0.27785632 0.00000000)
		(-0.20000000 0.27750998 0.00000000)
		(-0.18000000 0.27716364 0.00000000)
		(-0.16000000 0.27681731 0.00000000)
		(-0.14000000 0.27647097 0.00000000)
		(-0.12000000 0.27612464 0.00000000)
		(-0.10000000 0.27577830 0.00000000)
		(-0.08162011 0.27578311 0.00000000)
		(-0.06324022 0.27493675 0.00000000)
		(-0.04486034 0.27323922 0.00000000)
		(-0.02648045 0.27069052 0.00000000)
		(-0.00810056 0.26729066 0.00000000)
		(0.01027933 0.26303962 0.00000000)
		(0.02865922 0.25793741 0.00000000)
		(0.04703911 0.25198404 0.00000000)
		(0.06541899 0.24517950 0.00000000)
		(0.08379888 0.23752379 0.00000000)
		(0.10055866 0.23371702 0.00000000)
		(0.11731844 0.23115395 0.00000000)
		(0.13407821 0.22984655 0.00000000)
		(0.15083799 0.22980094 0.00000000)
		(0.16759777 0.23101732 0.00000000)
		(0.18435754 0.23349001 0.00000000)
		(0.20111732 0.23720746 0.00000000)
		(0.21787709 0.24215232 0.00000000)
		(0.23463687 0.24830147 0.00000000)
		(0.25139665 0.25562621 0.00000000)
		(0.26815642 0.26409233 0.00000000)
		(0.28491620 0.27366027 0.00000000)
		(0.30167598 0.28428536 0.00000000)
		(0.31843575 0.29591797 0.00000000)
		(0.33519553 0.30850376 0.00000000)
		(0.35195531 0.32198396 0.00000000)
		(0.36871508 0.33629560 0.00000000)
		(0.38547486 0.35137183 0.00000000)
		(0.40223464 0.36714225 0.00000000)
		(0.41899441 0.38353320 0.00000000)
		(0.43575419 0.40046812 0.00000000)
		(0.45251397 0.41786791 0.00000000)
		(0.46927374 0.43565130 0.00000000)
		(0.48603352 0.45373525 0.00000000)
		(0.50279330 0.47203528 0.00000000)
		(0.51955307 0.49046592 0.00000000)
		(0.53631285 0.50894109 0.00000000)
		(0.55307263 0.52737450 0.00000000)
		(0.56983240 0.54568005 0.00000000)
		(0.58659218 0.56377225 0.00000000)
		(0.60335196 0.58156660 0.00000000)
		(0.62011173 0.59897998 0.00000000)
		(0.63687151 0.61593107 0.00000000)
		(0.65363128 0.63234068 0.00000000)
		(0.67039106 0.64813219 0.00000000)
		(0.68715084 0.66323183 0.00000000)
		(0.70391061 0.67756908 0.00000000)
		(0.72067039 0.69107697 0.00000000)
		(0.73743017 0.70369242 0.00000000)
		(0.75418994 0.71535650 0.00000000)
		(0.77094972 0.72601474 0.00000000)
		(0.78770950 0.73561735 0.00000000)
		(0.80446927 0.74411948 0.00000000)
		(0.82122905 0.75148143 0.00000000)
		(0.83798883 0.75766881 0.00000000)
		(0.85474860 0.76265273 0.00000000)
		(0.87150838 0.76640989 0.00000000)
		(0.88826816 0.76892276 0.00000000)
		(0.90502793 0.77017960 0.00000000)
		(0.92178771 0.77017453 0.00000000)
		(0.93854749 0.76890759 0.00000000)
		(0.95530726 0.76638469 0.00000000)
		(0.97206704 0.76261761 0.00000000)
		(0.98882682 0.75762394 0.00000000)
		(1.00558659 0.75142702 0.00000000)
		(1.02234637 0.74405578 0.00000000)
		(1.03910615 0.73554466 0.00000000)
		(1.05586592 0.72593339 0.00000000)
		(1.07262570 0.71526689 0.00000000)
		(1.08938547 0.70359495 0.00000000)
		(1.10614525 0.69097211 0.00000000)
		(1.12290503 0.67745731 0.00000000)
		(1.13966480 0.66311367 0.00000000)
		(1.15642458 0.64800820 0.00000000)
		(1.17318436 0.63221144 0.00000000)
		(1.18994413 0.61579717 0.00000000)
		(1.20670391 0.59884206 0.00000000)
		(1.22346369 0.58142530 0.00000000)
		(1.24022346 0.56362823 0.00000000)
		(1.25698324 0.54553398 0.00000000)
		(1.27374302 0.52722706 0.00000000)
		(1.29050279 0.50879297 0.00000000)
		(1.30726257 0.49031782 0.00000000)
		(1.32402235 0.47188788 0.00000000)
		(1.34078212 0.45358925 0.00000000)
		(1.35754190 0.43550738 0.00000000)
		(1.37430168 0.41772673 0.00000000)
		(1.39106145 0.40033035 0.00000000)
		(1.40782123 0.38339948 0.00000000)
		(1.42458101 0.36701321 0.00000000)
		(1.44134078 0.35124807 0.00000000)
		(1.45810056 0.33617769 0.00000000)
		(1.47486034 0.32187246 0.00000000)
		(1.49162011 0.30839919 0.00000000)
		(1.50837989 0.29582081 0.00000000)
		(1.52513966 0.28419608 0.00000000)
		(1.54189944 0.27357927 0.00000000)
		(1.55865922 0.26401999 0.00000000)
		(1.57541899 0.25556288 0.00000000)
		(1.59217877 0.24824744 0.00000000)
		(1.60893855 0.24210783 0.00000000)
		(1.62569832 0.23717274 0.00000000)
		(1.64245810 0.23346521 0.00000000)
		(1.65921788 0.23100256 0.00000000)
		(1.67597765 0.22979628 0.00000000)
		(1.69273743 0.22985202 0.00000000)
		(1.70949721 0.23116952 0.00000000)
		(1.72625698 0.23374262 0.00000000)
		(1.74301676 0.23755930 0.00000000)
		(1.75977654 0.24260173 0.00000000)
		(1.77653631 0.24884638 0.00000000)
		(1.79329609 0.25626406 0.00000000)
		(1.81005587 0.26482013 0.00000000)
		(1.82681564 0.27447464 0.00000000)
		(1.84357542 0.28518248 0.00000000)
		(1.86033520 0.29689366 0.00000000)
		(1.87709497 0.30955346 0.00000000)
		(1.89385475 0.32310276 0.00000000)
		(1.91061453 0.33747828 0.00000000)
		(1.92737430 0.35261288 0.00000000)
		(1.94413408 0.36843586 0.00000000)
		(1.96089385 0.38487333 0.00000000)
		(1.97765363 0.40184850 0.00000000)
		(1.99441341 0.41928211 0.00000000)
		(2.01117318 0.43709271 0.00000000)
		(2.02793296 0.45519713 0.00000000)
		(2.04469274 0.47351081 0.00000000)
		(2.06145251 0.49194821 0.00000000)
		(2.07821229 0.51042321 0.00000000)
		(2.09497207 0.52884953 0.00000000)
		(2.11173184 0.54714111 0.00000000)
		(2.12849162 0.56521251 0.00000000)
		(2.14525140 0.58297932 0.00000000)
		(2.16201117 0.60035858 0.00000000)
		(2.17877095 0.61726909 0.00000000)
		(2.19553073 0.63363190 0.00000000)
		(2.21229050 0.64937055 0.00000000)
		(2.22905028 0.66441156 0.00000000)
		(2.24581006 0.67868467 0.00000000)
		(2.26256983 0.69212321 0.00000000)
		(2.27932961 0.70466442 0.00000000)
		(2.29608939 0.71624973 0.00000000)
		(2.31284916 0.72682501 0.00000000)
		(2.32960894 0.73634089 0.00000000)
		(2.34636872 0.74475291 0.00000000)
		(2.36312849 0.75202179 0.00000000)
		(2.37988827 0.75811358 0.00000000)
		(2.39664804 0.76299982 0.00000000)
		(2.41340782 0.76665769 0.00000000)
		(2.43016760 0.76907011 0.00000000)
		(2.44692737 0.77022580 0.00000000)
		(2.46368715 0.77011938 0.00000000)