/*--------------------------------*- C++ -*----------------------------------*\\
/*--------------------------------*- C++ -*----------------------------------*\\
| =========                 |                                                 |
| \\\\      /  F ield         | OpenFOAM: The Open Source CFD Toolbox           |
|  \\\\    /   O peration     | Version:  v2012                                 |
|   \\\\  /    A nd           | Website:  www.openfoam.com                      |
|    \\\\/     M anipulation  |                                                 |
\\*---------------------------------------------------------------------------*/
FoamFile
{
    version     2.0;
    format      ascii;
    class       dictionary;
    object      blockMeshDict;
}
// * * * * * * * * * * * * * * * * * * * * * * * * * * * * * * * * * * * * * //

scale   0.01;

xmin -1;
xmax 5;
ymin 0;
ymax 0.5;
zmin 0;
zmax 0.1;

vertices
(
    (-1.00000000 -0.20989395 0.00000000)
    (4.00000000 -0.03301118 0.00000000)
    (4.00000000 0.46698882 0.00000000)
    (-1.00000000 0.29010605 0.00000000)
    (-1.00000000 -0.20989395 0.10000000)
    (4.00000000 -0.03301118 0.10000000)
    (4.00000000 0.46698882 0.10000000)
    (-1.00000000 0.29010605 0.10000000)
);

blocks
(
    hex (0 1 2 3 4 5 6 7) (200 20 1) simpleGrading (1 1 1)
);

edges
(
	polyLine 0 1
	(
		(-1.00000000 -0.20989395 0.00000000)
		(-0.98000000 -0.20989395 0.00000000)
		(-0.96000000 -0.20989395 0.00000000)
		(-0.94000000 -0.20989395 0.00000000)
		(-0.92000000 -0.20989395 0.00000000)
		(-0.90000000 -0.20989395 0.00000000)
		(-0.88000000 -0.20989395 0.00000000)
		(-0.86000000 -0.20989395 0.00000000)
		(-0.84000000 -0.20989395 0.00000000)
		(-0.82000000 -0.20989395 0.00000000)
		(-0.80000000 -0.20989395 0.00000000)
		(-0.78000000 -0.20989395 0.00000000)
		(-0.76000000 -0.20989395 0.00000000)
		(-0.74000000 -0.20989395 0.00000000)
		(-0.72000000 -0.20989395 0.00000000)
		(-0.70000000 -0.20989395 0.00000000)
		(-0.68000000 -0.20989395 0.00000000)
		(-0.66000000 -0.20989395 0.00000000)
		(-0.64000000 -0.20989395 0.00000000)
		(-0.62000000 -0.20989395 0.00000000)
		(-0.60000000 -0.20989395 0.00000000)
		(-0.58000000 -0.20989395 0.00000000)
		(-0.56000000 -0.20989395 0.00000000)
		(-0.54000000 -0.20989395 0.00000000)
		(-0.52000000 -0.20989395 0.00000000)
		(-0.50000000 -0.20989395 0.00000000)
		(-0.48000000 -0.20989395 0.00000000)
		(-0.46000000 -0.20989395 0.00000000)
		(-0.44000000 -0.20989395 0.00000000)
		(-0.42000000 -0.20989395 0.00000000)
		(-0.40000000 -0.20989395 0.00000000)
		(-0.38000000 -0.20989395 0.00000000)
		(-0.36000000 -0.20989395 0.00000000)
		(-0.34000000 -0.20989395 0.00000000)
		(-0.32000000 -0.20989395 0.00000000)
		(-0.30000000 -0.20989395 0.00000000)
		(-0.28000000 -0.20989395 0.00000000)
		(-0.26000000 -0.20989395 0.00000000)
		(-0.24000000 -0.20989395 0.00000000)
		(-0.22000000 -0.20989395 0.00000000)
		(-0.20000000 -0.20989395 0.00000000)
		(-0.18000000 -0.20989395 0.00000000)
		(-0.16000000 -0.20989395 0.00000000)
		(-0.14000000 -0.20989395 0.00000000)
		(-0.12000000 -0.20989395 0.00000000)
		(-0.10000000 -0.20989395 0.00000000)
		(-0.08162011 -0.21028855 0.00000000)
		(-0.06324022 -0.21147235 0.00000000)
		(-0.04486034 -0.21344535 0.00000000)
		(-0.02648045 -0.21620755 0.00000000)
		(-0.00810056 -0.21975895 0.00000000)
		(0.01027933 -0.22409955 0.00000000)
		(0.02865922 -0.22922935 0.00000000)
		(0.04703911 -0.23514835 0.00000000)
		(0.06541899 -0.24185656 0.00000000)
		(0.08379888 -0.24935396 0.00000000)
		(0.10055866 -0.24989797 0.00000000)
		(0.11731844 -0.24792120 0.00000000)
		(0.13407821 -0.24344358 0.00000000)
		(0.15083799 -0.23651029 0.00000000)
		(0.16759777 -0.22719126 0.00000000)
		(0.18435754 -0.21558049 0.00000000)
		(0.20111732 -0.20179511 0.00000000)
		(0.21787709 -0.18597417 0.00000000)
		(0.23463687 -0.16827726 0.00000000)
		(0.25139665 -0.14888290 0.00000000)
		(0.26815642 -0.12798671 0.00000000)
		(0.28491620 -0.10579950 0.00000000)
		(0.30167598 -0.08254505 0.00000000)
		(0.31843575 -0.05845796 0.00000000)
		(0.33519553 -0.03378118 0.00000000)
		(0.35195531 -0.00876365 0.00000000)
		(0.36871508 0.01634229 0.00000000)
		(0.38547486 0.04128338 0.00000000)
		(0.40223464 0.06580803 0.00000000)
		(0.41899441 0.08966886 0.00000000)
		(0.43575419 0.11262517 0.00000000)
		(0.45251397 0.13444541 0.00000000)
		(0.46927374 0.15490947 0.00000000)
		(0.48603352 0.17381091 0.00000000)
		(0.50279330 0.19095908 0.00000000)
		(0.51955307 0.20618100 0.00000000)
		(0.53631285 0.21932311 0.00000000)
		(0.55307263 0.23025286 0.00000000)
		(0.56983240 0.23885999 0.00000000)
		(0.58659218 0.24505768 0.00000000)
		(0.60335196 0.24878341 0.00000000)
		(0.62011173 0.24999960 0.00000000)
		(0.63687151 0.24869398 0.00000000)
		(0.65363128 0.24487973 0.00000000)
		(0.67039106 0.23859531 0.00000000)
		(0.68715084 0.22990411 0.00000000)
		(0.70391061 0.21889382 0.00000000)
		(0.72067039 0.20567549 0.00000000)
		(0.73743017 0.19038246 0.00000000)
		(0.75418994 0.17316899 0.00000000)
		(0.77094972 0.15420873 0.00000000)
		(0.78770950 0.13369292 0.00000000)
		(0.80446927 0.11182852 0.00000000)
		(0.82122905 0.08883608 0.00000000)
		(0.83798883 0.06494752 0.00000000)
		(0.85474860 0.04040382 0.00000000)
		(0.87150838 0.01545256 0.00000000)
		(0.88826816 -0.00965458 0.00000000)
		(0.90502793 -0.03466432 0.00000000)
		(0.92178771 -0.05932440 0.00000000)
		(0.93854749 -0.08338606 0.00000000)
		(0.95530726 -0.10660658 0.00000000)
		(0.97206704 -0.12875174 0.00000000)
		(0.98882682 -0.14959815 0.00000000)
		(1.00558659 -0.16893552 0.00000000)
		(1.02234637 -0.18656879 0.00000000)
		(1.03910615 -0.20232010 0.00000000)
		(1.05586592 -0.21603055 0.00000000)
		(1.07262570 -0.22756185 0.00000000)
		(1.08938547 -0.23679768 0.00000000)
		(1.10614525 -0.24364487 0.00000000)
		(1.12290503 -0.24803435 0.00000000)
		(1.13966480 -0.24992185 0.00000000)
		(1.15642458 -0.24928832 0.00000000)
		(1.17318436 -0.24614016 0.00000000)
		(1.18994413 -0.24050912 0.00000000)
		(1.20670391 -0.23245200 0.00000000)
		(1.22346369 -0.22205009 0.00000000)
		(1.24022346 -0.20940829 0.00000000)
		(1.25698324 -0.19465415 0.00000000)
		(1.27374302 -0.17793647 0.00000000)
		(1.29050279 -0.15942391 0.00000000)
		(1.30726257 -0.13930320 0.00000000)
		(1.32402235 -0.11777730 0.00000000)
		(1.34078212 -0.09506335 0.00000000)
		(1.35754190 -0.07139048 0.00000000)
		(1.37430168 -0.04699747 0.00000000)
		(1.39106145 -0.02213039 0.00000000)
		(1.40782123 0.00295993 0.00000000)
		(1.42458101 0.02802040 0.00000000)
		(1.44134078 0.05279821 0.00000000)
		(1.45810056 0.07704343 0.00000000)
		(1.47486034 0.10051150 0.00000000)
		(1.49162011 0.12296568 0.00000000)
		(1.50837989 0.14417948 0.00000000)
		(1.52513966 0.16393890 0.00000000)
		(1.54189944 0.18204463 0.00000000)
		(1.55865922 0.19831403 0.00000000)
		(1.57541899 0.21258298 0.00000000)
		(1.59217877 0.22470756 0.00000000)
		(1.60893855 0.23456546 0.00000000)
		(1.62569832 0.24205723 0.00000000)
		(1.64245810 0.24710732 0.00000000)
		(1.65921788 0.24966476 0.00000000)
		(1.67597765 0.24970378 0.00000000)
		(1.69273743 0.24722397 0.00000000)
		(1.70949721 0.24225036 0.00000000)
		(1.72625698 0.23483310 0.00000000)
		(1.74301676 0.22504702 0.00000000)
		(1.75977654 0.21299083 0.00000000)
		(1.77653631 0.19878616 0.00000000)
		(1.79329609 0.18257627 0.00000000)
		(1.81005587 0.16452470 0.00000000)
		(1.82681564 0.14481352 0.00000000)
		(1.84357542 0.12364157 0.00000000)
		(1.86033520 0.10122242 0.00000000)
		(1.87709497 0.07778221 0.00000000)
		(1.89385475 0.05355739 0.00000000)
		(1.91061453 0.02879233 0.00000000)
		(1.92737430 0.00373683 0.00000000)
		(1.94413408 -0.02135636 0.00000000)
		(1.96089385 -0.04623413 0.00000000)
		(1.97765363 -0.07064552 0.00000000)
		(1.99441341 -0.09434429 0.00000000)
		(2.01117318 -0.11709139 0.00000000)
		(2.02793296 -0.13865736 0.00000000)
		(2.04469274 -0.15882465 0.00000000)
		(2.06145251 -0.17738984 0.00000000)
		(2.07821229 -0.19416566 0.00000000)
		(2.09497207 -0.20898288 0.00000000)
		(2.11173184 -0.22169203 0.00000000)
		(2.12849162 -0.23216492 0.00000000)
		(2.14525140 -0.24029591 0.00000000)
		(2.16201117 -0.24600297 0.00000000)
		(2.17877095 -0.24922853 0.00000000)
		(2.19553073 -0.24994007 0.00000000)
		(2.21229050 -0.24813039 0.00000000)
		(2.22905028 -0.24381777 0.00000000)
		(2.24581006 -0.23704569 0.00000000)
		(2.26256983 -0.22788247 0.00000000)
		(2.27932961 -0.21642054 0.00000000)
		(2.29608939 -0.20277553 0.00000000)
		(2.31284916 -0.18708507 0.00000000)
		(2.32960894 -0.16950743 0.00000000)
		(2.34636872 -0.15021993 0.00000000)
		(2.36312849 -0.12941712 0.00000000)
		(2.37988827 -0.10730885 0.00000000)
		(2.39664804 -0.08411813 0.00000000)
		(2.41340782 -0.06007889 0.00000000)
		(2.43016760 -0.03543362 0.00000000)
		(2.44692737 -0.01043092 0.00000000)
		(2.46368715 0.01467700 0.00000000)
		(2.48044693 0.03963687 0.00000000)
		(2.49720670 0.06419692 0.00000000)
		(2.51396648 0.08810939 0.00000000)
		(2.53072626 0.11113308 0.00000000)
		(2.54748603 0.13303574 0.00000000)
		(2.56424581 0.15359644 0.00000000)
		(2.58100559 0.17260777 0.00000000)
		(2.59776536 0.18987797 0.00000000)
		(2.61452514 0.20523281 0.00000000)
		(2.63128492 0.21851743 0.00000000)
		(2.64804469 0.22959780 0.00000000)
		(2.66480447 0.23836216 0.00000000)
		(2.68156425 0.24472210 0.00000000)
		(2.69832402 0.24861347 0.00000000)
		(2.71508380 0.24999701 0.00000000)
		(2.73184358 0.24885877 0.00000000)
		(2.74860335 0.24521023 0.00000000)
		(2.76536313 0.23908819 0.00000000)
		(2.78212291 0.23055440 0.00000000)
		(2.79888268 0.21969496 0.00000000)
		(2.81564246 0.20661940 0.00000000)
		(2.83240223 0.19145962 0.00000000)
		(2.84916201 0.17436853 0.00000000)
		(2.86592179 0.15551855 0.00000000)
		(2.88268156 0.13509981 0.00000000)
		(2.89944134 0.11331829 0.00000000)
		(2.91620112 0.09039369 0.00000000)
		(2.93296089 0.06655728 0.00000000)
		(2.95166480 0.04763927 0.00000000)
		(2.97036872 0.03071263 0.00000000)
		(2.98907263 0.01577736 0.00000000)
		(3.00777654 0.00283347 0.00000000)
		(3.02648045 -0.00811906 0.00000000)
		(3.04518436 -0.01708023 0.00000000)
		(3.06388827 -0.02405002 0.00000000)
		(3.08259218 -0.02902844 0.00000000)
		(3.10129609 -0.03201549 0.00000000)
		(3.12000000 -0.03301118 0.00000000)
		(3.14000000 -0.03301118 0.00000000)
		(3.16000000 -0.03301118 0.00000000)
		(3.18000000 -0.03301118 0.00000000)
		(3.20000000 -0.03301118 0.00000000)
		(3.22000000 -0.03301118 0.00000000)
		(3.24000000 -0.03301118 0.00000000)
		(3.26000000 -0.03301118 0.00000000)
		(3.28000000 -0.03301118 0.00000000)
		(3.30000000 -0.03301118 0.00000000)
		(3.32000000 -0.03301118 0.00000000)
		(3.34000000 -0.03301118 0.00000000)
		(3.36000000 -0.03301118 0.00000000)
		(3.38000000 -0.03301118 0.00000000)
		(3.40000000 -0.03301118 0.00000000)
		(3.42000000 -0.03301118 0.00000000)
		(3.44000000 -0.03301118 0.00000000)
		(3.46000000 -0.03301118 0.00000000)
		(3.48000000 -0.03301118 0.00000000)
		(3.50000000 -0.03301118 0.00000000)
		(3.52000000 -0.03301118 0.00000000)
		(3.54000000 -0.03301118 0.00000000)
		(3.56000000 -0.03301118 0.00000000)
		(3.58000000 -0.03301118 0.00000000)
		(3.60000000 -0.03301118 0.00000000)
		(3.62000000 -0.03301118 0.00000000)
		(3.64000000 -0.03301118 0.00000000)
		(3.66000000 -0.03301118 0.00000000)
		(3.68000000 -0.03301118 0.00000000)
		(3.70000000 -0.03301118 0.00000000)
		(3.72000000 -0.03301118 0.00000000)
		(3.74000000 -0.03301118 0.00000000)
		(3.76000000 -0.03301118 0.00000000)
		(3.78000000 -0.03301118 0.00000000)
		(3.80000000 -0.03301118 0.00000000)
		(3.82000000 -0.03301118 0.00000000)
		(3.84000000 -0.03301118 0.00000000)
		(3.86000000 -0.03301118 0.00000000)
		(3.88000000 -0.03301118 0.00000000)
		(3.90000000 -0.03301118 0.00000000)
		(3.92000000 -0.03301118 0.00000000)
		(3.94000000 -0.03301118 0.00000000)
		(3.96000000 -0.03301118 0.00000000)
		(3.98000000 -0.03301118 0.00000000)
		(4.00000000 -0.03301118 0.00000000)
	)
	polyLine 4 5
	(
		(-1.00000000 -0.20989395 0.10000000)
		(-0.98000000 -0.20989395 0.10000000)
		(-0.96000000 -0.20989395 0.10000000)
		(-0.94000000 -0.20989395 0.10000000)
		(-0.92000000 -0.20989395 0.10000000)
		(-0.90000000 -0.20989395 0.10000000)
		(-0.88000000 -0.20989395 0.10000000)
		(-0.86000000 -0.20989395 0.10000000)
		(-0.84000000 -0.20989395 0.10000000)
		(-0.82000000 -0.20989395 0.10000000)
		(-0.80000000 -0.20989395 0.10000000)
		(-0.78000000 -0.20989395 0.10000000)
		(-0.76000000 -0.20989395 0.10000000)
		(-0.74000000 -0.20989395 0.10000000)
		(-0.72000000 -0.20989395 0.10000000)
		(-0.70000000 -0.20989395 0.10000000)
		(-0.68000000 -0.20989395 0.10000000)
		(-0.66000000 -0.20989395 0.10000000)
		(-0.64000000 -0.20989395 0.10000000)
		(-0.62000000 -0.20989395 0.10000000)
		(-0.60000000 -0.20989395 0.10000000)
		(-0.58000000 -0.20989395 0.10000000)
		(-0.56000000 -0.20989395 0.10000000)
		(-0.54000000 -0.20989395 0.10000000)
		(-0.52000000 -0.20989395 0.10000000)
		(-0.50000000 -0.20989395 0.10000000)
		(-0.48000000 -0.20989395 0.10000000)
		(-0.46000000 -0.20989395 0.10000000)
		(-0.44000000 -0.20989395 0.10000000)
		(-0.42000000 -0.20989395 0.10000000)
		(-0.40000000 -0.20989395 0.10000000)
		(-0.38000000 -0.20989395 0.10000000)
		(-0.36000000 -0.20989395 0.10000000)
		(-0.34000000 -0.20989395 0.10000000)
		(-0.32000000 -0.20989395 0.10000000)
		(-0.30000000 -0.20989395 0.10000000)
		(-0.28000000 -0.20989395 0.10000000)
		(-0.26000000 -0.20989395 0.10000000)
		(-0.24000000 -0.20989395 0.10000000)
		(-0.22000000 -0.20989395 0.10000000)
		(-0.20000000 -0.20989395 0.10000000)
		(-0.18000000 -0.20989395 0.10000000)
		(-0.16000000 -0.20989395 0.10000000)
		(-0.14000000 -0.20989395 0.10000000)
		(-0.12000000 -0.20989395 0.10000000)
		(-0.10000000 -0.20989395 0.10000000)
		(-0.08162011 -0.21028855 0.10000000)
		(-0.06324022 -0.21147235 0.10000000)
		(-0.04486034 -0.21344535 0.10000000)
		(-0.02648045 -0.21620755 0.10000000)
		(-0.00810056 -0.21975895 0.10000000)
		(0.01027933 -0.22409955 0.10000000)
		(0.02865922 -0.22922935 0.10000000)
		(0.04703911 -0.23514835 0.10000000)
		(0.06541899 -0.24185656 0.10000000)
		(0.08379888 -0.24935396 0.10000000)
		(0.10055866 -0.24989797 0.10000000)
		(0.11731844 -0.24792120 0.10000000)
		(0.13407821 -0.24344358 0.10000000)
		(0.15083799 -0.23651029 0.10000000)
		(0.16759777 -0.22719126 0.10000000)
		(0.18435754 -0.21558049 0.10000000)
		(0.20111732 -0.20179511 0.10000000)
		(0.21787709 -0.18597417 0.10000000)
		(0.23463687 -0.16827726 0.10000000)
		(0.25139665 -0.14888290 0.10000000)
		(0.26815642 -0.12798671 0.10000000)
		(0.28491620 -0.10579950 0.10000000)
		(0.30167598 -0.08254505 0.10000000)
		(0.31843575 -0.05845796 0.10000000)
		(0.33519553 -0.03378118 0.10000000)
		(0.35195531 -0.00876365 0.10000000)
		(0.36871508 0.01634229 0.10000000)
		(0.38547486 0.04128338 0.10000000)
		(0.40223464 0.06580803 0.10000000)
		(0.41899441 0.08966886 0.10000000)
		(0.43575419 0.11262517 0.10000000)
		(0.45251397 0.13444541 0.10000000)
		(0.46927374 0.15490947 0.10000000)
		(0.48603352 0.17381091 0.10000000)
		(0.50279330 0.19095908 0.10000000)
		(0.51955307 0.20618100 0.10000000)
		(0.53631285 0.21932311 0.10000000)
		(0.55307263 0.23025286 0.10000000)
		(0.56983240 0.23885999 0.10000000)
		(0.58659218 0.24505768 0.10000000)
		(0.60335196 0.24878341 0.10000000)
		(0.62011173 0.24999960 0.10000000)
		(0.63687151 0.24869398 0.10000000)
		(0.65363128 0.24487973 0.10000000)
		(0.67039106 0.23859531 0.10000000)
		(0.68715084 0.22990411 0.10000000)
		(0.70391061 0.21889382 0.10000000)
		(0.72067039 0.20567549 0.10000000)
		(0.73743017 0.19038246 0.10000000)
		(0.75418994 0.17316899 0.10000000)
		(0.77094972 0.15420873 0.10000000)
		(0.78770950 0.13369292 0.10000000)
		(0.80446927 0.11182852 0.10000000)
		(0.82122905 0.08883608 0.10000000)
		(0.83798883 0.06494752 0.10000000)
		(0.85474860 0.04040382 0.10000000)
		(0.87150838 0.01545256 0.10000000)
		(0.88826816 -0.00965458 0.10000000)
		(0.90502793 -0.03466432 0.10000000)
		(0.92178771 -0.05932440 0.10000000)
		(0.93854749 -0.08338606 0.10000000)
		(0.95530726 -0.10660658 0.10000000)
		(0.97206704 -0.12875174 0.10000000)
		(0.98882682 -0.14959815 0.10000000)
		(1.00558659 -0.16893552 0.10000000)
		(1.02234637 -0.18656879 0.10000000)
		(1.03910615 -0.20232010 0.10000000)
		(1.05586592 -0.21603055 0.10000000)
		(1.07262570 -0.22756185 0.10000000)
		(1.08938547 -0.23679768 0.10000000)
		(1.10614525 -0.24364487 0.10000000)
		(1.12290503 -0.24803435 0.10000000)
		(1.13966480 -0.24992185 0.10000000)
		(1.15642458 -0.24928832 0.10000000)
		(1.17318436 -0.24614016 0.10000000)
		(1.18994413 -0.24050912 0.10000000)
		(1.20670391 -0.23245200 0.10000000)
		(1.22346369 -0.22205009 0.10000000)
		(1.24022346 -0.20940829 0.10000000)
		(1.25698324 -0.19465415 0.10000000)
		(1.27374302 -0.17793647 0.10000000)
		(1.29050279 -0.15942391 0.10000000)
		(1.30726257 -0.13930320 0.10000000)
		(1.32402235 -0.11777730 0.10000000)
		(1.34078212 -0.09506335 0.10000000)
		(1.35754190 -0.07139048 0.10000000)
		(1.37430168 -0.04699747 0.10000000)
		(1.39106145 -0.02213039 0.10000000)
		(1.40782123 0.00295993 0.10000000)
		(1.42458101 0.02802040 0.10000000)
		(1.44134078 0.05279821 0.10000000)
		(1.45810056 0.07704343 0.10000000)
		(1.47486034 0.10051150 0.10000000)
		(1.49162011 0.12296568 0.10000000)
		(1.50837989 0.14417948 0.10000000)
		(1.52513966 0.16393890 0.10000000)
		(1.54189944 0.18204463 0.10000000)
		(1.55865922 0.19831403 0.10000000)
		(1.57541899 0.21258298 0.10000000)
		(1.59217877 0.22470756 0.10000000)
		(1.60893855 0.23456546 0.10000000)
		(1.62569832 0.24205723 0.10000000)
		(1.64245810 0.24710732 0.10000000)
		(1.65921788 0.24966476 0.10000000)
		(1.67597765 0.24970378 0.10000000)
		(1.69273743 0.24722397 0.10000000)
		(1.70949721 0.24225036 0.10000000)
		(1.72625698 0.23483310 0.10000000)
		(1.74301676 0.22504702 0.10000000)
		(1.75977654 0.21299083 0.10000000)
		(1.77653631 0.19878616 0.10000000)
		(1.79329609 0.18257627 0.10000000)
		(1.81005587 0.16452470 0.10000000)
		(1.82681564 0.14481352 0.10000000)
		(1.84357542 0.12364157 0.10000000)
		(1.86033520 0.10122242 0.10000000)
		(1.87709497 0.07778221 0.10000000)
		(1.89385475 0.05355739 0.10000000)
		(1.91061453 0.02879233 0.10000000)
		(1.92737430 0.00373683 0.10000000)
		(1.94413408 -0.02135636 0.10000000)
		(1.96089385 -0.04623413 0.10000000)
		(1.97765363 -0.07064552 0.10000000)
		(1.99441341 -0.09434429 0.10000000)
		(2.01117318 -0.11709139 0.10000000)
		(2.02793296 -0.13865736 0.10000000)
		(2.04469274 -0.15882465 0.10000000)
		(2.06145251 -0.17738984 0.10000000)
		(2.07821229 -0.19416566 0.10000000)
		(2.09497207 -0.20898288 0.10000000)
		(2.11173184 -0.22169203 0.10000000)
		(2.12849162 -0.23216492 0.10000000)
		(2.14525140 -0.24029591 0.10000000)
		(2.16201117 -0.24600297 0.10000000)
		(2.17877095 -0.24922853 0.10000000)
		(2.19553073 -0.24994007 0.10000000)
		(2.21229050 -0.24813039 0.10000000)
		(2.22905028 -0.24381777 0.10000000)
		(2.24581006 -0.23704569 0.10000000)
		(2.26256983 -0.22788247 0.10000000)
		(2.27932961 -0.21642054 0.10000000)
		(2.29608939 -0.20277553 0.10000000)
		(2.31284916 -0.18708507 0.10000000)
		(2.32960894 -0.16950743 0.10000000)
		(2.34636872 -0.15021993 0.10000000)
		(2.36312849 -0.12941712 0.10000000)
		(2.37988827 -0.10730885 0.10000000)
		(2.39664804 -0.08411813 0.10000000)
		(2.41340782 -0.06007889 0.10000000)
		(2.43016760 -0.03543362 0.10000000)
		(2.44692737 -0.01043092 0.10000000)
		(2.46368715 0.01467700 0.10000000)
		(2.48044693 0.03963687 0.10000000)
		(2.49720670 0.06419692 0.10000000)
		(2.51396648 0.08810939 0.10000000)
		(2.53072626 0.11113308 0.10000000)
		(2.54748603 0.13303574 0.10000000)
		(2.56424581 0.15359644 0.10000000)
		(2.58100559 0.17260777 0.10000000)
		(2.59776536 0.18987797 0.10000000)
		(2.61452514 0.20523281 0.10000000)
		(2.63128492 0.21851743 0.10000000)
		(2.64804469 0.22959780 0.10000000)
		(2.66480447 0.23836216 0.10000000)
		(2.68156425 0.24472210 0.10000000)
		(2.69832402 0.24861347 0.10000000)
		(2.71508380 0.24999701 0.10000000)
		(2.73184358 0.24885877 0.10000000)
		(2.74860335 0.24521023 0.10000000)
		(2.76536313 0.23908819 0.10000000)
		(2.78212291 0.23055440 0.10000000)
		(2.79888268 0.21969496 0.10000000)
		(2.81564246 0.20661940 0.10000000)
		(2.83240223 0.19145962 0.10000000)
		(2.84916201 0.17436853 0.10000000)
		(2.86592179 0.15551855 0.10000000)
		(2.88268156 0.13509981 0.10000000)
		(2.89944134 0.11331829 0.10000000)
		(2.91620112 0.09039369 0.10000000)
		(2.93296089 0.06655728 0.10000000)
		(2.95166480 0.04763927 0.10000000)
		(2.97036872 0.03071263 0.10000000)
		(2.98907263 0.01577736 0.10000000)
		(3.00777654 0.00283347 0.10000000)
		(3.02648045 -0.00811906 0.10000000)
		(3.04518436 -0.01708023 0.10000000)
		(3.06388827 -0.02405002 0.10000000)
		(3.08259218 -0.02902844 0.10000000)
		(3.10129609 -0.03201549 0.10000000)
		(3.12000000 -0.03301118 0.10000000)
		(3.14000000 -0.03301118 0.10000000)
		(3.16000000 -0.03301118 0.10000000)
		(3.18000000 -0.03301118 0.10000000)
		(3.20000000 -0.03301118 0.10000000)
		(3.22000000 -0.03301118 0.10000000)
		(3.24000000 -0.03301118 0.10000000)
		(3.26000000 -0.03301118 0.10000000)
		(3.28000000 -0.03301118 0.10000000)
		(3.30000000 -0.03301118 0.10000000)
		(3.32000000 -0.03301118 0.10000000)
		(3.34000000 -0.03301118 0.10000000)
		(3.36000000 -0.03301118 0.10000000)
		(3.38000000 -0.03301118 0.10000000)
		(3.40000000 -0.03301118 0.10000000)
		(3.42000000 -0.03301118 0.10000000)
		(3.44000000 -0.03301118 0.10000000)
		(3.46000000 -0.03301118 0.10000000)
		(3.48000000 -0.03301118 0.10000000)
		(3.50000000 -0.03301118 0.10000000)
		(3.52000000 -0.03301118 0.10000000)
		(3.54000000 -0.03301118 0.10000000)
		(3.56000000 -0.03301118 0.10000000)
		(3.58000000 -0.03301118 0.10000000)
		(3.60000000 -0.03301118 0.10000000)
		(3.62000000 -0.03301118 0.10000000)
		(3.64000000 -0.03301118 0.10000000)
		(3.66000000 -0.03301118 0.10000000)
		(3.68000000 -0.03301118 0.10000000)
		(3.70000000 -0.03301118 0.10000000)
		(3.72000000 -0.03301118 0.10000000)
		(3.74000000 -0.03301118 0.10000000)
		(3.76000000 -0.03301118 0.10000000)
		(3.78000000 -0.03301118 0.10000000)
		(3.80000000 -0.03301118 0.10000000)
		(3.82000000 -0.03301118 0.10000000)
		(3.84000000 -0.03301118 0.10000000)
		(3.86000000 -0.03301118 0.10000000)
		(3.88000000 -0.03301118 0.10000000)
		(3.90000000 -0.03301118 0.10000000)
		(3.92000000 -0.03301118 0.10000000)
		(3.94000000 -0.03301118 0.10000000)
		(3.96000000 -0.03301118 0.10000000)
		(3.98000000 -0.03301118 0.10000000)
		(4.00000000 -0.03301118 0.10000000)
	)
	polyLine 3 2
	(
		(-1.00000000 0.29010605 0.00000000)
		(-0.98000000 0.28859563 0.00000000)
		(-0.96000000 0.28708521 0.00000000)
		(-0.94000000 0.28557479 0.00000000)
		(-0.92000000 0.28406436 0.00000000)
		(-0.90000000 0.28255394 0.00000000)
		(-0.88000000 0.28104352 0.00000000)
		(-0.86000000 0.27953310 0.00000000)
		(-0.84000000 0.27802268 0.00000000)
		(-0.82000000 0.27651225 0.00000000)
		(-0.80000000 0.27500183 0.00000000)
		(-0.78000000 0.27349141 0.00000000)
		(-0.76000000 0.27198099 0.00000000)
		(-0.74000000 0.27047056 0.00000000)
		(-0.72000000 0.26896014 0.00000000)
		(-0.70000000 0.26744972 0.00000000)
		(-0.68000000 0.26593930 0.00000000)
		(-0.66000000 0.26442887 0.00000000)
		(-0.64000000 0.26291845 0.00000000)
		(-0.62000000 0.26140803 0.00000000)
		(-0.60000000 0.25989761 0.00000000)
		(-0.58000000 0.25838718 0.00000000)
		(-0.56000000 0.25687676 0.00000000)
		(-0.54000000 0.25536634 0.00000000)
		(-0.52000000 0.25385592 0.00000000)
		(-0.50000000 0.25234549 0.00000000)
		(-0.48000000 0.25083507 0.00000000)
		(-0.46000000 0.24932465 0.00000000)
		(-0.44000000 0.24781423 0.00000000)
		(-0.42000000 0.24630380 0.00000000)
		(-0.40000000 0.24479338 0.00000000)
		(-0.38000000 0.24328296 0.00000000)
		(-0.36000000 0.24177254 0.00000000)
		(-0.34000000 0.24026212 0.00000000)
		(-0.32000000 0.23875169 0.00000000)
		(-0.30000000 0.23724127 0.00000000)
		(-0.28000000 0.23573085 0.00000000)
		(-0.26000000 0.23422043 0.00000000)
		(-0.24000000 0.23271000 0.00000000)
		(-0.22000000 0.23119958 0.00000000)
		(-0.20000000 0.22968916 0.00000000)
		(-0.18000000 0.22817874 0.00000000)
		(-0.16000000 0.22666831 0.00000000)
		(-0.14000000 0.22515789 0.00000000)
		(-0.12000000 0.22364747 0.00000000)
		(-0.10000000 0.22213705 0.00000000)
		(-0.08162011 0.22143883 0.00000000)
		(-0.06324022 0.21957542 0.00000000)
		(-0.04486034 0.21654683 0.00000000)
		(-0.02648045 0.21235304 0.00000000)
		(-0.00810056 0.20699407 0.00000000)
		(0.01027933 0.20046990 0.00000000)
		(0.02865922 0.19278055 0.00000000)
		(0.04703911 0.18392601 0.00000000)
		(0.06541899 0.17390627 0.00000000)
		(0.08379888 0.16272135 0.00000000)
		(0.10055866 0.16198552 0.00000000)
		(0.11731844 0.16465932 0.00000000)
		(0.13407821 0.17071579 0.00000000)
		(0.15083799 0.18009383 0.00000000)
		(0.16759777 0.19269884 0.00000000)
		(0.18435754 0.20840368 0.00000000)
		(0.20111732 0.22704993 0.00000000)
		(0.21787709 0.24844949 0.00000000)
		(0.23463687 0.27238650 0.00000000)
		(0.25139665 0.29861951 0.00000000)
		(0.26815642 0.32688390 0.00000000)
		(0.28491620 0.35689455 0.00000000)
		(0.30167598 0.38834874 0.00000000)
		(0.31843575 0.42092918 0.00000000)
		(0.33519553 0.45430724 0.00000000)
		(0.35195531 0.48814620 0.00000000)
		(0.36871508 0.52210474 0.00000000)
		(0.38547486 0.55584031 0.00000000)
		(0.40223464 0.58901259 0.00000000)
		(0.41899441 0.62128699 0.00000000)
		(0.43575419 0.65233793 0.00000000)
		(0.45251397 0.68185221 0.00000000)
		(0.46927374 0.70953209 0.00000000)
		(0.48603352 0.73509837 0.00000000)
		(0.50279330 0.75829315 0.00000000)
		(0.51955307 0.77888247 0.00000000)
		(0.53631285 0.79665863 0.00000000)
		(0.55307263 0.81144231 0.00000000)
		(0.56983240 0.82308440 0.00000000)
		(0.58659218 0.83146746 0.00000000)
		(0.60335196 0.83650692 0.00000000)
		(0.62011173 0.83815195 0.00000000)
		(0.63687151 0.83638596 0.00000000)
		(0.65363128 0.83122676 0.00000000)
		(0.67039106 0.82272639 0.00000000)
		(0.68715084 0.81097059 0.00000000)
		(0.70391061 0.79607796 0.00000000)
		(0.72067039 0.77819872 0.00000000)
		(0.73743017 0.75751321 0.00000000)
		(0.75418994 0.73423011 0.00000000)
		(0.77094972 0.70858426 0.00000000)
		(0.78770950 0.68083438 0.00000000)
		(0.80446927 0.65126037 0.00000000)
		(0.82122905 0.62016056 0.00000000)
		(0.83798883 0.58784866 0.00000000)
		(0.85474860 0.55465061 0.00000000)
		(0.87150838 0.52090129 0.00000000)
		(0.88826816 0.48694113 0.00000000)
		(0.90502793 0.45311269 0.00000000)
		(0.92178771 0.41975722 0.00000000)
		(0.93854749 0.38721118 0.00000000)
		(0.95530726 0.35580287 0.00000000)
		(0.97206704 0.32584911 0.00000000)
		(0.98882682 0.29765206 0.00000000)
		(1.00558659 0.27149614 0.00000000)
		(1.02234637 0.24764519 0.00000000)
		(1.03910615 0.22633982 0.00000000)
		(1.05586592 0.20779492 0.00000000)
		(1.07262570 0.19219757 0.00000000)
		(1.08938547 0.17970510 0.00000000)
		(1.10614525 0.17044352 0.00000000)
		(1.12290503 0.16450626 0.00000000)
		(1.13966480 0.16195322 0.00000000)
		(1.15642458 0.16281013 0.00000000)
		(1.17318436 0.16706837 0.00000000)
		(1.18994413 0.17468497 0.00000000)
		(1.20670391 0.18558310 0.00000000)
		(1.22346369 0.19965284 0.00000000)
		(1.24022346 0.21675226 0.00000000)
		(1.25698324 0.23670886 0.00000000)
		(1.27374302 0.25932135 0.00000000)
		(1.29050279 0.28436163 0.00000000)
		(1.30726257 0.31157710 0.00000000)
		(1.32402235 0.34069325 0.00000000)
		(1.34078212 0.37141636 0.00000000)
		(1.35754190 0.40343653 0.00000000)
		(1.37430168 0.43643075 0.00000000)
		(1.39106145 0.47006622 0.00000000)
		(1.40782123 0.50400364 0.00000000)
		(1.42458101 0.53790067 0.00000000)
		(1.44134078 0.57141538 0.00000000)
		(1.45810056 0.60420971 0.00000000)
		(1.47486034 0.63595286 0.00000000)
		(1.49162011 0.66632461 0.00000000)
		(1.50837989 0.69501860 0.00000000)
		(1.52513966 0.72174539 0.00000000)
		(1.54189944 0.74623538 0.00000000)
		(1.55865922 0.76824153 0.00000000)
		(1.57541899 0.78754186 0.00000000)
		(1.59217877 0.80394169 0.00000000)
		(1.60893855 0.81727558 0.00000000)
		(1.62569832 0.82740903 0.00000000)
		(1.64245810 0.83423982 0.00000000)
		(1.65921788 0.83769905 0.00000000)
		(1.67597765 0.83775182 0.00000000)
		(1.69273743 0.83439761 0.00000000)
		(1.70949721 0.82767025 0.00000000)
		(1.72625698 0.81763759 0.00000000)
		(1.74301676 0.80440084 0.00000000)
		(1.75977654 0.78809352 0.00000000)
		(1.77653631 0.76888014 0.00000000)
		(1.79329609 0.74695449 0.00000000)
		(1.81005587 0.72253775 0.00000000)
		(1.82681564 0.69587621 0.00000000)
		(1.84357542 0.66723882 0.00000000)
		(1.86033520 0.63691445 0.00000000)
		(1.87709497 0.60520899 0.00000000)
		(1.89385475 0.57244227 0.00000000)
		(1.91061453 0.53894479 0.00000000)
		(1.92737430 0.50505448 0.00000000)
		(1.94413408 0.47111317 0.00000000)
		(1.96089385 0.43746326 0.00000000)
		(1.97765363 0.40444417 0.00000000)
		(1.99441341 0.37238897 0.00000000)
		(2.01117318 0.34162102 0.00000000)
		(2.02793296 0.31245068 0.00000000)
		(2.04469274 0.28517219 0.00000000)
		(2.06145251 0.26006073 0.00000000)
		(2.07821229 0.23736959 0.00000000)
		(2.09497207 0.21732768 0.00000000)
		(2.11173184 0.20013715 0.00000000)
		(2.12849162 0.18597141 0.00000000)
		(2.14525140 0.17497336 0.00000000)
		(2.16201117 0.16725394 0.00000000)
		(2.17877095 0.16289100 0.00000000)
		(2.19553073 0.16192857 0.00000000)
		(2.21229050 0.16437636 0.00000000)
		(2.22905028 0.17020966 0.00000000)
		(2.24581006 0.17936964 0.00000000)
		(2.26256983 0.19176390 0.00000000)
		(2.27932961 0.20726742 0.00000000)
		(2.29608939 0.22572380 0.00000000)
		(2.31284916 0.24694687 0.00000000)
		(2.32960894 0.27072256 0.00000000)
		(2.34636872 0.29681103 0.00000000)
		(2.36312849 0.32494911 0.00000000)
		(2.37988827 0.35485298 0.00000000)
		(2.39664804 0.38622098 0.00000000)
		(2.41340782 0.41873669 0.00000000)
		(2.43016760 0.45207214 0.00000000)
		(2.44692737 0.48589104 0.00000000)
		(2.46368715 0.51985226 0.00000000)
		(2.48044693 0.55361323 0.00000000)