/*--------------------------------*- C++ -*----------------------------------*\\
/*--------------------------------*- C++ -*----------------------------------*\\
| =========                 |                                                 |
| \\\\      /  F ield         | OpenFOAM: The Open Source CFD Toolbox           |
|  \\\\    /   O peration     | Version:  v2012                                 |
|   \\\\  /    A nd           | Website:  www.openfoam.com                      |
|    \\\\/     M anipulation  |                                                 |
\\*---------------------------------------------------------------------------*/
FoamFile
{
    version     2.0;
    format      ascii;
    class       dictionary;
    object      blockMeshDict;
}
// * * * * * * * * * * * * * * * * * * * * * * * * * * * * * * * * * * * * * //

scale   0.01;

xmin -1;
xmax 5;
ymin 0;
ymax 0.5;
zmin 0;
zmax 0.1;

vertices
(
    (-1.00000000 -0.16921110 0.00000000)
    (4.00000000 0.09506375 0.00000000)
    (4.00000000 0.59506375 0.00000000)
    (-1.00000000 0.33078890 0.00000000)
    (-1.00000000 -0.16921110 0.10000000)
    (4.00000000 0.09506375 0.10000000)
    (4.00000000 0.59506375 0.10000000)
    (-1.00000000 0.33078890 0.10000000)
);

blocks
(
    hex (0 1 2 3 4 5 6 7) (200 20 1) simpleGrading (1 1 1)
);

edges
(
	polyLine 0 1
	(
		(-1.00000000 -0.16921110 0.00000000)
		(-0.98000000 -0.16921110 0.00000000)
		(-0.96000000 -0.16921110 0.00000000)
		(-0.94000000 -0.16921110 0.00000000)
		(-0.92000000 -0.16921110 0.00000000)
		(-0.90000000 -0.16921110 0.00000000)
		(-0.88000000 -0.16921110 0.00000000)
		(-0.86000000 -0.16921110 0.00000000)
		(-0.84000000 -0.16921110 0.00000000)
		(-0.82000000 -0.16921110 0.00000000)
		(-0.80000000 -0.16921110 0.00000000)
		(-0.78000000 -0.16921110 0.00000000)
		(-0.76000000 -0.16921110 0.00000000)
		(-0.74000000 -0.16921110 0.00000000)
		(-0.72000000 -0.16921110 0.00000000)
		(-0.70000000 -0.16921110 0.00000000)
		(-0.68000000 -0.16921110 0.00000000)
		(-0.66000000 -0.16921110 0.00000000)
		(-0.64000000 -0.16921110 0.00000000)
		(-0.62000000 -0.16921110 0.00000000)
		(-0.60000000 -0.16921110 0.00000000)
		(-0.58000000 -0.16921110 0.00000000)
		(-0.56000000 -0.16921110 0.00000000)
		(-0.54000000 -0.16921110 0.00000000)
		(-0.52000000 -0.16921110 0.00000000)
		(-0.50000000 -0.16921110 0.00000000)
		(-0.48000000 -0.16921110 0.00000000)
		(-0.46000000 -0.16921110 0.00000000)
		(-0.44000000 -0.16921110 0.00000000)
		(-0.42000000 -0.16921110 0.00000000)
		(-0.40000000 -0.16921110 0.00000000)
		(-0.38000000 -0.16921110 0.00000000)
		(-0.36000000 -0.16921110 0.00000000)
		(-0.34000000 -0.16921110 0.00000000)
		(-0.32000000 -0.16921110 0.00000000)
		(-0.30000000 -0.16921110 0.00000000)
		(-0.28000000 -0.16921110 0.00000000)
		(-0.26000000 -0.16921110 0.00000000)
		(-0.24000000 -0.16921110 0.00000000)
		(-0.22000000 -0.16921110 0.00000000)
		(-0.20000000 -0.16921110 0.00000000)
		(-0.18000000 -0.16921110 0.00000000)
		(-0.16000000 -0.16921110 0.00000000)
		(-0.14000000 -0.16921110 0.00000000)
		(-0.12000000 -0.16921110 0.00000000)
		(-0.10000000 -0.16921110 0.00000000)
		(-0.08162011 -0.16824542 0.00000000)
		(-0.06324022 -0.16534839 0.00000000)
		(-0.04486034 -0.16052000 0.00000000)
		(-0.02648045 -0.15376026 0.00000000)
		(-0.00810056 -0.14506917 0.00000000)
		(0.01027933 -0.13444671 0.00000000)
		(0.02865922 -0.12189291 0.00000000)
		(0.04703911 -0.10740775 0.00000000)
		(0.06541899 -0.09099123 0.00000000)
		(0.08379888 -0.07264336 0.00000000)
		(0.10055866 -0.05091573 0.00000000)
		(0.11731844 -0.02877845 0.00000000)
		(0.13407821 -0.00640962 0.00000000)
		(0.15083799 0.01601078 0.00000000)
		(0.16759777 0.03830236 0.00000000)
		(0.18435754 0.06028576 0.00000000)
		(0.20111732 0.08178413 0.00000000)
		(0.21787709 0.10262447 0.00000000)
		(0.23463687 0.12263913 0.00000000)
		(0.25139665 0.14166706 0.00000000)
		(0.26815642 0.15955517 0.00000000)
		(0.28491620 0.17615954 0.00000000)
		(0.30167598 0.19134657 0.00000000)
		(0.31843575 0.20499407 0.00000000)
		(0.33519553 0.21699224 0.00000000)
		(0.35195531 0.22724454 0.00000000)
		(0.36871508 0.23566849 0.00000000)
		(0.38547486 0.24219630 0.00000000)
		(0.40223464 0.24677546 0.00000000)
		(0.41899441 0.24936913 0.00000000)
		(0.43575419 0.24995643 0.00000000)
		(0.45251397 0.24853264 0.00000000)
		(0.46927374 0.24510921 0.00000000)
		(0.48603352 0.23971370 0.00000000)
		(0.50279330 0.23238951 0.00000000)
		(0.51955307 0.22319556 0.00000000)
		(0.53631285 0.21220584 0.00000000)
		(0.55307263 0.19950876 0.00000000)
		(0.56983240 0.18520649 0.00000000)
		(0.58659218 0.16941408 0.00000000)
		(0.60335196 0.15225861 0.00000000)
		(0.62011173 0.13387811 0.00000000)
		(0.63687151 0.11442045 0.00000000)
		(0.65363128 0.09404219 0.00000000)
		(0.67039106 0.07290729 0.00000000)
		(0.68715084 0.05118580 0.00000000)
		(0.70391061 0.02905248 0.00000000)
		(0.72067039 0.00668541 0.00000000)
		(0.73743017 -0.01573545 0.00000000)
		(0.75418994 -0.03802971 0.00000000)
		(0.77094972 -0.06001799 0.00000000)
		(0.78770950 -0.08152337 0.00000000)
		(0.80446927 -0.10237284 0.00000000)
		(0.82122905 -0.12239865 0.00000000)
		(0.83798883 -0.14143966 0.00000000)
		(0.85474860 -0.15934268 0.00000000)
		(0.87150838 -0.17596367 0.00000000)
		(0.88826816 -0.19116890 0.00000000)
		(0.90502793 -0.20483603 0.00000000)
		(0.92178771 -0.21685510 0.00000000)
		(0.93854749 -0.22712940 0.00000000)
		(0.95530726 -0.23557628 0.00000000)
		(0.97206704 -0.24212776 0.00000000)
		(0.98882682 -0.24673114 0.00000000)
		(1.00558659 -0.24934939 0.00000000)
		(1.02234637 -0.24996142 0.00000000)
		(1.03910615 -0.24856233 0.00000000)
		(1.05586592 -0.24516337 0.00000000)
		(1.07262570 -0.23979187 0.00000000)
		(1.08938547 -0.23249108 0.00000000)
		(1.10614525 -0.22331971 0.00000000)
		(1.12290503 -0.21235157 0.00000000)
		(1.13966480 -0.19967489 0.00000000)
		(1.15642458 -0.18539168 0.00000000)
		(1.17318436 -0.16961686 0.00000000)
		(1.18994413 -0.15247733 0.00000000)
		(1.20670391 -0.13411101 0.00000000)
		(1.22346369 -0.11466567 0.00000000)
		(1.24022346 -0.09429775 0.00000000)
		(1.25698324 -0.07317114 0.00000000)
		(1.27374302 -0.05145581 0.00000000)
		(1.29050279 -0.02932647 0.00000000)
		(1.30726257 -0.00696119 0.00000000)
		(1.32402235 0.01546011 0.00000000)
		(1.34078212 0.03775701 0.00000000)
		(1.35754190 0.05975014 0.00000000)
		(1.37430168 0.08126252 0.00000000)
		(1.39106145 0.10212109 0.00000000)
		(1.40782123 0.12215802 0.00000000)
		(1.42458101 0.14121209 0.00000000)
		(1.44134078 0.15913000 0.00000000)
		(1.45810056 0.17576759 0.00000000)
		(1.47486034 0.19099100 0.00000000)
		(1.49162011 0.20467774 0.00000000)
		(1.50837989 0.21671769 0.00000000)
		(1.52513966 0.22701399 0.00000000)
		(1.54189944 0.23548378 0.00000000)
		(1.55865922 0.24205893 0.00000000)
		(1.57541899 0.24668653 0.00000000)
		(1.59217877 0.24932934 0.00000000)
		(1.60893855 0.24996612 0.00000000)
		(1.62569832 0.24859172 0.00000000)
		(1.64245810 0.24521722 0.00000000)
		(1.65921788 0.23986976 0.00000000)
		(1.67597765 0.23259236 0.00000000)
		(1.69273743 0.22344358 0.00000000)
		(1.70949721 0.21249703 0.00000000)
		(1.72625698 0.19984078 0.00000000)
		(1.74301676 0.18557665 0.00000000)
		(1.75977654 0.16981942 0.00000000)
		(1.77653631 0.15269587 0.00000000)
		(1.79329609 0.13434376 0.00000000)
		(1.81005587 0.11491075 0.00000000)
		(1.82681564 0.09455320 0.00000000)
		(1.84357542 0.07343489 0.00000000)
		(1.86033520 0.05172575 0.00000000)
		(1.87709497 0.02960043 0.00000000)
		(1.89385475 0.00723696 0.00000000)
		(1.91061453 -0.01518474 0.00000000)
		(1.92737430 -0.03748427 0.00000000)
		(1.94413408 -0.05948221 0.00000000)
		(1.96089385 -0.08100157 0.00000000)
		(1.97765363 -0.10186921 0.00000000)
		(1.99441341 -0.12191724 0.00000000)
		(2.01117318 -0.14098435 0.00000000)
		(2.02793296 -0.15891713 0.00000000)
		(2.04469274 -0.17557130 0.00000000)
		(2.06145251 -0.19081287 0.00000000)
		(2.07821229 -0.20451920 0.00000000)
		(2.09497207 -0.21658003 0.00000000)
		(2.11173184 -0.22689830 0.00000000)
		(2.12849162 -0.23539100 0.00000000)
		(2.14525140 -0.24198980 0.00000000)
		(2.16201117 -0.24664161 0.00000000)
		(2.17877095 -0.24930900 0.00000000)
		(2.19553073 -0.24997051 0.00000000)
		(2.21229050 -0.24862081 0.00000000)
		(2.22905028 -0.24527078 0.00000000)
		(2.24581006 -0.23994735 0.00000000)
		(2.26256983 -0.23269337 0.00000000)
		(2.27932961 -0.22356718 0.00000000)
		(2.29608939 -0.21264224 0.00000000)
		(2.31284916 -0.20000642 0.00000000)
		(2.32960894 -0.18576140 0.00000000)
		(2.34636872 -0.17002179 0.00000000)
		(2.36312849 -0.15291422 0.00000000)
		(2.37988827 -0.13457634 0.00000000)
		(2.39664804 -0.11515569 0.00000000)
		(2.41340782 -0.09480853 0.00000000)
		(2.43016760 -0.07369856 0.00000000)
		(2.44692737 -0.05199563 0.00000000)
		(2.46368715 -0.02987436 0.00000000)
		(2.48044693 -0.00751272 0.00000000)
		(2.49720670 0.01490936 0.00000000)
		(2.51396648 0.03721149 0.00000000)
		(2.53072626 0.05921422 0.00000000)
		(2.54748603 0.08074052 0.00000000)
		(2.56424581 0.10161721 0.00000000)
		(2.58100559 0.12167631 0.00000000)
		(2.59776536 0.14075643 0.00000000)
		(2.61452514 0.15870406 0.00000000)
		(2.63128492 0.17537480 0.00000000)
		(2.64804469 0.19063451 0.00000000)
		(2.66480447 0.20436042 0.00000000)
		(2.68156425 0.21644209 0.00000000)
		(2.69832402 0.22678233 0.00000000)
		(2.71508380 0.23529793 0.00000000)
		(2.73184358 0.24192037 0.00000000)
		(2.74860335 0.24659639 0.00000000)
		(2.76536313 0.24928835 0.00000000)
		(2.78212291 0.24997459 0.00000000)
		(2.79888268 0.24864960 0.00000000)
		(2.81564246 0.24532404 0.00000000)
		(2.83240223 0.24002465 0.00000000)
		(2.84916201 0.23279409 0.00000000)
		(2.86592179 0.22369051 0.00000000)
		(2.88268156 0.21278718 0.00000000)
		(2.89944134 0.20017182 0.00000000)
		(2.91620112 0.18594592 0.00000000)
		(2.93296089 0.17022394 0.00000000)
		(2.95166480 0.15594350 0.00000000)
		(2.97036872 0.14316627 0.00000000)
		(2.98907263 0.13189224 0.00000000)
		(3.00777654 0.12212142 0.00000000)
		(3.02648045 0.11385380 0.00000000)
		(3.04518436 0.10708938 0.00000000)
		(3.06388827 0.10182816 0.00000000)
		(3.08259218 0.09807015 0.00000000)
		(3.10129609 0.09581535 0.00000000)
		(3.12000000 0.09506375 0.00000000)
		(3.14000000 0.09506375 0.00000000)
		(3.16000000 0.09506375 0.00000000)
		(3.18000000 0.09506375 0.00000000)
		(3.20000000 0.09506375 0.00000000)
		(3.22000000 0.09506375 0.00000000)
		(3.24000000 0.09506375 0.00000000)
		(3.26000000 0.09506375 0.00000000)
		(3.28000000 0.09506375 0.00000000)
		(3.30000000 0.09506375 0.00000000)
		(3.32000000 0.09506375 0.00000000)
		(3.34000000 0.09506375 0.00000000)
		(3.36000000 0.09506375 0.00000000)
		(3.38000000 0.09506375 0.00000000)
		(3.40000000 0.09506375 0.00000000)
		(3.42000000 0.09506375 0.00000000)
		(3.44000000 0.09506375 0.00000000)
		(3.46000000 0.09506375 0.00000000)
		(3.48000000 0.09506375 0.00000000)
		(3.50000000 0.09506375 0.00000000)
		(3.52000000 0.09506375 0.00000000)
		(3.54000000 0.09506375 0.00000000)
		(3.56000000 0.09506375 0.00000000)
		(3.58000000 0.09506375 0.00000000)
		(3.60000000 0.09506375 0.00000000)
		(3.62000000 0.09506375 0.00000000)
		(3.64000000 0.09506375 0.00000000)
		(3.66000000 0.09506375 0.00000000)
		(3.68000000 0.09506375 0.00000000)
		(3.70000000 0.09506375 0.00000000)
		(3.72000000 0.09506375 0.00000000)
		(3.74000000 0.09506375 0.00000000)
		(3.76000000 0.09506375 0.00000000)
		(3.78000000 0.09506375 0.00000000)
		(3.80000000 0.09506375 0.00000000)
		(3.82000000 0.09506375 0.00000000)
		(3.84000000 0.09506375 0.00000000)
		(3.86000000 0.09506375 0.00000000)
		(3.88000000 0.09506375 0.00000000)
		(3.90000000 0.09506375 0.00000000)
		(3.92000000 0.09506375 0.00000000)
		(3.94000000 0.09506375 0.00000000)
		(3.96000000 0.09506375 0.00000000)
		(3.98000000 0.09506375 0.00000000)
		(4.00000000 0.09506375 0.00000000)
	)
	polyLine 4 5
	(
		(-1.00000000 -0.16921110 0.10000000)
		(-0.98000000 -0.16921110 0.10000000)
		(-0.96000000 -0.16921110 0.10000000)
		(-0.94000000 -0.16921110 0.10000000)
		(-0.92000000 -0.16921110 0.10000000)
		(-0.90000000 -0.16921110 0.10000000)
		(-0.88000000 -0.16921110 0.10000000)
		(-0.86000000 -0.16921110 0.10000000)
		(-0.84000000 -0.16921110 0.10000000)
		(-0.82000000 -0.16921110 0.10000000)
		(-0.80000000 -0.16921110 0.10000000)
		(-0.78000000 -0.16921110 0.10000000)
		(-0.76000000 -0.16921110 0.10000000)
		(-0.74000000 -0.16921110 0.10000000)
		(-0.72000000 -0.16921110 0.10000000)
		(-0.70000000 -0.16921110 0.10000000)
		(-0.68000000 -0.16921110 0.10000000)
		(-0.66000000 -0.16921110 0.10000000)
		(-0.64000000 -0.16921110 0.10000000)
		(-0.62000000 -0.16921110 0.10000000)
		(-0.60000000 -0.16921110 0.10000000)
		(-0.58000000 -0.16921110 0.10000000)
		(-0.56000000 -0.16921110 0.10000000)
		(-0.54000000 -0.16921110 0.10000000)
		(-0.52000000 -0.16921110 0.10000000)
		(-0.50000000 -0.16921110 0.10000000)
		(-0.48000000 -0.16921110 0.10000000)
		(-0.46000000 -0.16921110 0.10000000)
		(-0.44000000 -0.16921110 0.10000000)
		(-0.42000000 -0.16921110 0.10000000)
		(-0.40000000 -0.16921110 0.10000000)
		(-0.38000000 -0.16921110 0.10000000)
		(-0.36000000 -0.16921110 0.10000000)
		(-0.34000000 -0.16921110 0.10000000)
		(-0.32000000 -0.16921110 0.10000000)
		(-0.30000000 -0.16921110 0.10000000)
		(-0.28000000 -0.16921110 0.10000000)
		(-0.26000000 -0.16921110 0.10000000)
		(-0.24000000 -0.16921110 0.10000000)
		(-0.22000000 -0.16921110 0.10000000)
		(-0.20000000 -0.16921110 0.10000000)
		(-0.18000000 -0.16921110 0.10000000)
		(-0.16000000 -0.16921110 0.10000000)
		(-0.14000000 -0.16921110 0.10000000)
		(-0.12000000 -0.16921110 0.10000000)
		(-0.10000000 -0.16921110 0.10000000)
		(-0.08162011 -0.16824542 0.10000000)
		(-0.06324022 -0.16534839 0.10000000)
		(-0.04486034 -0.16052000 0.10000000)
		(-0.02648045 -0.15376026 0.10000000)
		(-0.00810056 -0.14506917 0.10000000)
		(0.01027933 -0.13444671 0.10000000)
		(0.02865922 -0.12189291 0.10000000)
		(0.04703911 -0.10740775 0.10000000)
		(0.06541899 -0.09099123 0.10000000)
		(0.08379888 -0.07264336 0.10000000)
		(0.10055866 -0.05091573 0.10000000)
		(0.11731844 -0.02877845 0.10000000)
		(0.13407821 -0.00640962 0.10000000)
		(0.15083799 0.01601078 0.10000000)
		(0.16759777 0.03830236 0.10000000)
		(0.18435754 0.06028576 0.10000000)
		(0.20111732 0.08178413 0.10000000)
		(0.21787709 0.10262447 0.10000000)
		(0.23463687 0.12263913 0.10000000)
		(0.25139665 0.14166706 0.10000000)
		(0.26815642 0.15955517 0.10000000)
		(0.28491620 0.17615954 0.10000000)
		(0.30167598 0.19134657 0.10000000)
		(0.31843575 0.20499407 0.10000000)
		(0.33519553 0.21699224 0.10000000)
		(0.35195531 0.22724454 0.10000000)
		(0.36871508 0.23566849 0.10000000)
		(0.38547486 0.24219630 0.10000000)
		(0.40223464 0.24677546 0.10000000)
		(0.41899441 0.24936913 0.10000000)
		(0.43575419 0.24995643 0.10000000)
		(0.45251397 0.24853264 0.10000000)
		(0.46927374 0.24510921 0.10000000)
		(0.48603352 0.23971370 0.10000000)
		(0.50279330 0.23238951 0.10000000)
		(0.51955307 0.22319556 0.10000000)
		(0.53631285 0.21220584 0.10000000)
		(0.55307263 0.19950876 0.10000000)
		(0.56983240 0.18520649 0.10000000)
		(0.58659218 0.16941408 0.10000000)
		(0.60335196 0.15225861 0.10000000)
		(0.62011173 0.13387811 0.10000000)
		(0.63687151 0.11442045 0.10000000)
		(0.65363128 0.09404219 0.10000000)
		(0.67039106 0.07290729 0.10000000)
		(0.68715084 0.05118580 0.10000000)
		(0.70391061 0.02905248 0.10000000)
		(0.72067039 0.00668541 0.10000000)
		(0.73743017 -0.01573545 0.10000000)
		(0.75418994 -0.03802971 0.10000000)
		(0.77094972 -0.06001799 0.10000000)
		(0.78770950 -0.08152337 0.10000000)
		(0.80446927 -0.10237284 0.10000000)
		(0.82122905 -0.12239865 0.10000000)
		(0.83798883 -0.14143966 0.10000000)
		(0.85474860 -0.15934268 0.10000000)
		(0.87150838 -0.17596367 0.10000000)
		(0.88826816 -0.19116890 0.10000000)
		(0.90502793 -0.20483603 0.10000000)
		(0.92178771 -0.21685510 0.10000000)
		(0.93854749 -0.22712940 0.10000000)
		(0.95530726 -0.23557628 0.10000000)
		(0.97206704 -0.24212776 0.10000000)
		(0.98882682 -0.24673114 0.10000000)
		(1.00558659 -0.24934939 0.10000000)
		(1.02234637 -0.24996142 0.10000000)
		(1.03910615 -0.24856233 0.10000000)
		(1.05586592 -0.24516337 0.10000000)
		(1.07262570 -0.23979187 0.10000000)
		(1.08938547 -0.23249108 0.10000000)
		(1.10614525 -0.22331971 0.10000000)
		(1.12290503 -0.21235157 0.10000000)
		(1.13966480 -0.19967489 0.10000000)
		(1.15642458 -0.18539168 0.10000000)
		(1.17318436 -0.16961686 0.10000000)
		(1.18994413 -0.15247733 0.10000000)
		(1.20670391 -0.13411101 0.10000000)
		(1.22346369 -0.11466567 0.10000000)
		(1.24022346 -0.09429775 0.10000000)
		(1.25698324 -0.07317114 0.10000000)
		(1.27374302 -0.05145581 0.10000000)
		(1.29050279 -0.02932647 0.10000000)
		(1.30726257 -0.00696119 0.10000000)
		(1.32402235 0.01546011 0.10000000)
		(1.34078212 0.03775701 0.10000000)
		(1.35754190 0.05975014 0.10000000)
		(1.37430168 0.08126252 0.10000000)
		(1.39106145 0.10212109 0.10000000)
		(1.40782123 0.12215802 0.10000000)
		(1.42458101 0.14121209 0.10000000)
		(1.44134078 0.15913000 0.10000000)
		(1.45810056 0.17576759 0.10000000)
		(1.47486034 0.19099100 0.10000000)
		(1.49162011 0.20467774 0.10000000)
		(1.50837989 0.21671769 0.10000000)
		(1.52513966 0.22701399 0.10000000)
		(1.54189944 0.23548378 0.10000000)
		(1.55865922 0.24205893 0.10000000)
		(1.57541899 0.24668653 0.10000000)
		(1.59217877 0.24932934 0.10000000)
		(1.60893855 0.24996612 0.10000000)
		(1.62569832 0.24859172 0.10000000)
		(1.64245810 0.24521722 0.10000000)
		(1.65921788 0.23986976 0.10000000)
		(1.67597765 0.23259236 0.10000000)
		(1.69273743 0.22344358 0.10000000)
		(1.70949721 0.21249703 0.10000000)
		(1.72625698 0.19984078 0.10000000)
		(1.74301676 0.18557665 0.10000000)
		(1.75977654 0.16981942 0.10000000)
		(1.77653631 0.15269587 0.10000000)
		(1.79329609 0.13434376 0.10000000)
		(1.81005587 0.11491075 0.10000000)
		(1.82681564 0.09455320 0.10000000)
		(1.84357542 0.07343489 0.10000000)
		(1.86033520 0.05172575 0.10000000)
		(1.87709497 0.02960043 0.10000000)
		(1.89385475 0.00723696 0.10000000)
		(1.91061453 -0.01518474 0.10000000)
		(1.92737430 -0.03748427 0.10000000)
		(1.94413408 -0.05948221 0.10000000)
		(1.96089385 -0.08100157 0.10000000)
		(1.97765363 -0.10186921 0.10000000)
		(1.99441341 -0.12191724 0.10000000)
		(2.01117318 -0.14098435 0.10000000)
		(2.02793296 -0.15891713 0.10000000)
		(2.04469274 -0.17557130 0.10000000)
		(2.06145251 -0.19081287 0.10000000)
		(2.07821229 -0.20451920 0.10000000)
		(2.09497207 -0.21658003 0.10000000)
		(2.11173184 -0.22689830 0.10000000)
		(2.12849162 -0.23539100 0.10000000)
		(2.14525140 -0.24198980 0.10000000)
		(2.16201117 -0.24664161 0.10000000)
		(2.17877095 -0.24930900 0.10000000)
		(2.19553073 -0.24997051 0.10000000)
		(2.21229050 -0.24862081 0.10000000)
		(2.22905028 -0.24527078 0.10000000)
		(2.24581006 -0.23994735 0.10000000)
		(2.26256983 -0.23269337 0.10000000)
		(2.27932961 -0.22356718 0.10000000)
		(2.29608939 -0.21264224 0.10000000)
		(2.31284916 -0.20000642 0.10000000)
		(2.32960894 -0.18576140 0.10000000)
		(2.34636872 -0.17002179 0.10000000)
		(2.36312849 -0.15291422 0.10000000)
		(2.37988827 -0.13457634 0.10000000)
		(2.39664804 -0.11515569 0.10000000)
		(2.41340782 -0.09480853 0.10000000)
		(2.43016760 -0.07369856 0.10000000)
		(2.44692737 -0.05199563 0.10000000)
		(2.46368715 -0.02987436 0.10000000)
		(2.48044693 -0.00751272 0.10000000)
		(2.49720670 0.01490936 0.10000000)
		(2.51396648 0.03721149 0.10000000)
		(2.53072626 0.05921422 0.10000000)
		(2.54748603 0.08074052 0.10000000)
		(2.56424581 0.10161721 0.10000000)
		(2.58100559 0.12167631 0.10000000)
		(2.59776536 0.14075643 0.10000000)
		(2.61452514 0.15870406 0.10000000)
		(2.63128492 0.17537480 0.10000000)
		(2.64804469 0.19063451 0.10000000)
		(2.66480447 0.20436042 0.10000000)
		(2.68156425 0.21644209 0.10000000)
		(2.69832402 0.22678233 0.10000000)
		(2.71508380 0.23529793 0.10000000)
		(2.73184358 0.24192037 0.10000000)
		(2.74860335 0.24659639 0.10000000)
		(2.76536313 0.24928835 0.10000000)
		(2.78212291 0.24997459 0.10000000)
		(2.79888268 0.24864960 0.10000000)
		(2.81564246 0.24532404 0.10000000)
		(2.83240223 0.24002465 0.10000000)
		(2.84916201 0.23279409 0.10000000)
		(2.86592179 0.22369051 0.10000000)
		(2.88268156 0.21278718 0.10000000)
		(2.89944134 0.20017182 0.10000000)
		(2.91620112 0.18594592 0.10000000)
		(2.93296089 0.17022394 0.10000000)
		(2.95166480 0.15594350 0.10000000)
		(2.97036872 0.14316627 0.10000000)
		(2.98907263 0.13189224 0.10000000)
		(3.00777654 0.12212142 0.10000000)
		(3.02648045 0.11385380 0.10000000)
		(3.04518436 0.10708938 0.10000000)
		(3.06388827 0.10182816 0.10000000)
		(3.08259218 0.09807015 0.10000000)
		(3.10129609 0.09581535 0.10000000)
		(3.12000000 0.09506375 0.10000000)
		(3.14000000 0.09506375 0.10000000)
		(3.16000000 0.09506375 0.10000000)
		(3.18000000 0.09506375 0.10000000)
		(3.20000000 0.09506375 0.10000000)
		(3.22000000 0.09506375 0.10000000)
		(3.24000000 0.09506375 0.10000000)
		(3.26000000 0.09506375 0.10000000)
		(3.28000000 0.09506375 0.10000000)
		(3.30000000 0.09506375 0.10000000)
		(3.32000000 0.09506375 0.10000000)
		(3.34000000 0.09506375 0.10000000)
		(3.36000000 0.09506375 0.10000000)
		(3.38000000 0.09506375 0.10000000)
		(3.40000000 0.09506375 0.10000000)
		(3.42000000 0.09506375 0.10000000)
		(3.44000000 0.09506375 0.10000000)
		(3.46000000 0.09506375 0.10000000)
		(3.48000000 0.09506375 0.10000000)
		(3.50000000 0.09506375 0.10000000)
		(3.52000000 0.09506375 0.10000000)
		(3.54000000 0.09506375 0.10000000)
		(3.56000000 0.09506375 0.10000000)
		(3.58000000 0.09506375 0.10000000)
		(3.60000000 0.09506375 0.10000000)
		(3.62000000 0.09506375 0.10000000)
		(3.64000000 0.09506375 0.10000000)
		(3.66000000 0.09506375 0.10000000)
		(3.68000000 0.09506375 0.10000000)
		(3.70000000 0.09506375 0.10000000)
		(3.72000000 0.09506375 0.10000000)
		(3.74000000 0.09506375 0.10000000)
		(3.76000000 0.09506375 0.10000000)
		(3.78000000 0.09506375 0.10000000)
		(3.80000000 0.09506375 0.10000000)
		(3.82000000 0.09506375 0.10000000)
		(3.84000000 0.09506375 0.10000000)
		(3.86000000 0.09506375 0.10000000)
		(3.88000000 0.09506375 0.10000000)
		(3.90000000 0.09506375 0.10000000)
		(3.92000000 0.09506375 0.10000000)
		(3.94000000 0.09506375 0.10000000)
		(3.96000000 0.09506375 0.10000000)
		(3.98000000 0.09506375 0.10000000)
		(4.00000000 0.09506375 0.10000000)
	)
	polyLine 3 2
	(
		(-1.00000000 0.33078890 0.00000000)
		(-0.98000000 0.33005228 0.00000000)
		(-0.96000000 0.32931565 0.00000000)
		(-0.94000000 0.32857903 0.00000000)
		(-0.92000000 0.32784240 0.00000000)
		(-0.90000000 0.32710578 0.00000000)
		(-0.88000000 0.32636916 0.00000000)
		(-0.86000000 0.32563253 0.00000000)
		(-0.84000000 0.32489591 0.00000000)
		(-0.82000000 0.32415929 0.00000000)
		(-0.80000000 0.32342266 0.00000000)
		(-0.78000000 0.32268604 0.00000000)
		(-0.76000000 0.32194941 0.00000000)
		(-0.74000000 0.32121279 0.00000000)
		(-0.72000000 0.32047617 0.00000000)
		(-0.70000000 0.31973954 0.00000000)
		(-0.68000000 0.31900292 0.00000000)
		(-0.66000000 0.31826630 0.00000000)
		(-0.64000000 0.31752967 0.00000000)
		(-0.62000000 0.31679305 0.00000000)
		(-0.60000000 0.31605643 0.00000000)
		(-0.58000000 0.31531980 0.00000000)
		(-0.56000000 0.31458318 0.00000000)
		(-0.54000000 0.31384655 0.00000000)
		(-0.52000000 0.31310993 0.00000000)
		(-0.50000000 0.31237331 0.00000000)
		(-0.48000000 0.31163668 0.00000000)
		(-0.46000000 0.31090006 0.00000000)
		(-0.44000000 0.31016344 0.00000000)
		(-0.42000000 0.30942681 0.00000000)
		(-0.40000000 0.30869019 0.00000000)
		(-0.38000000 0.30795356 0.00000000)
		(-0.36000000 0.30721694 0.00000000)
		(-0.34000000 0.30648032 0.00000000)
		(-0.32000000 0.30574369 0.00000000)
		(-0.30000000 0.30500707 0.00000000)
		(-0.28000000 0.30427045 0.00000000)
		(-0.26000000 0.30353382 0.00000000)
		(-0.24000000 0.30279720 0.00000000)
		(-0.22000000 0.30206058 0.00000000)
		(-0.20000000 0.30132395 0.00000000)
		(-0.18000000 0.30058733 0.00000000)
		(-0.16000000 0.29985070 0.00000000)
		(-0.14000000 0.29911408 0.00000000)
		(-0.12000000 0.29837746 0.00000000)
		(-0.10000000 0.29764083 0.00000000)
		(-0.08162011 0.29634158 0.00000000)
		(-0.06324022 0.29786927 0.00000000)
		(-0.04486034 0.30222392 0.00000000)
		(-0.02648045 0.30940551 0.00000000)
		(-0.00810056 0.31941406 0.00000000)
		(0.01027933 0.33224955 0.00000000)
		(0.02865922 0.34791199 0.00000000)
		(0.04703911 0.36640139 0.00000000)
		(0.06541899 0.38771773 0.00000000)
		(0.08379888 0.41186103 0.00000000)
		(0.10055866 0.43822339 0.00000000)
		(0.11731844 0.46508280 0.00000000)
		(0.13407821 0.49222314 0.00000000)
		(0.15083799 0.51942605 0.00000000)
		(0.16759777 0.54647266 0.00000000)
		(0.18435754 0.57314537 0.00000000)
		(0.20111732 0.59922957 0.00000000)
		(0.21787709 0.62451538 0.00000000)
		(0.23463687 0.64879938 0.00000000)
		(0.25139665 0.67188618 0.00000000)
		(0.26815642 0.69359001 0.00000000)
		(0.28491620 0.71373627 0.00000000)
		(0.30167598 0.73216286 0.00000000)
		(0.31843575 0.74872153 0.00000000)
		(0.33519553 0.76327903 0.00000000)
		(0.35195531 0.77571826 0.00000000)
		(0.36871508 0.78593913 0.00000000)
		(0.38547486 0.79385939 0.00000000)
		(0.40223464 0.79941534 0.00000000)
		(0.41899441 0.80256226 0.00000000)
		(0.43575419 0.80327484 0.00000000)
		(0.45251397 0.80154734 0.00000000)
		(0.46927374 0.79739366 0.00000000)
		(0.48603352 0.79084723 0.00000000)
		(0.50279330 0.78196071 0.00000000)
		(0.51955307 0.77080560 0.00000000)
		(0.53631285 0.75747165 0.00000000)
		(0.55307263 0.74206615 0.00000000)
		(0.56983240 0.72471304 0.00000000)
		(0.58659218 0.70555194 0.00000000)
		(0.60335196 0.68473702 0.00000000)
		(0.62011173 0.66243576 0.00000000)
		(0.63687151 0.63882757 0.00000000)
		(0.65363128 0.61410241 0.00000000)
		(0.67039106 0.58845921 0.00000000)
		(0.68715084 0.56210429 0.00000000)
		(0.70391061 0.53524969 0.00000000)
		(0.72067039 0.50811148 0.00000000)
		(0.73743017 0.48090801 0.00000000)
		(0.75418994 0.45385814 0.00000000)
		(0.77094972 0.42717953 0.00000000)
		(0.78770950 0.40108681 0.00000000)
		(0.80446927 0.37578992 0.00000000)
		(0.82122905 0.35149240 0.00000000)
		(0.83798883 0.32838973 0.00000000)
		(0.85474860 0.30666780 0.00000000)
		(0.87150838 0.28650137 0.00000000)
		(0.88826816 0.26805270 0.00000000)
		(0.90502793 0.25147022 0.00000000)
		(0.92178771 0.23688736 0.00000000)
		(0.93854749 0.22442144 0.00000000)
		(0.95530726 0.21417275 0.00000000)
		(0.97206704 0.20622376 0.00000000)
		(0.98882682 0.20063843 0.00000000)
		(1.00558659 0.19746169 0.00000000)
		(1.02234637 0.19671910 0.00000000)
		(1.03910615 0.19841663 0.00000000)
		(1.05586592 0.20254063 0.00000000)
		(1.07262570 0.20905792 0.00000000)
		(1.08938547 0.21791606 0.00000000)
		(1.10614525 0.22904378 0.00000000)
		(1.12290503 0.24235154 0.00000000)
		(1.13966480 0.25773229 0.00000000)
		(1.15642458 0.27506226 0.00000000)
		(1.17318436 0.29420203 0.00000000)
		(1.18994413 0.31499760 0.00000000)
		(1.20670391 0.33728165 0.00000000)
		(1.22346369 0.36087490 0.00000000)
		(1.24022346 0.38558752 0.00000000)
		(1.25698324 0.41122067 0.00000000)
		(1.27374302 0.43756811 0.00000000)
		(1.29050279 0.46441787 0.00000000)
		(1.30726257 0.49155392 0.00000000)
		(1.32402235 0.51875792 0.00000000)
		(1.34078212 0.54581099 0.00000000)
		(1.35754190 0.57249549 0.00000000)
		(1.37430168 0.59859670 0.00000000)
		(1.39106145 0.62390463 0.00000000)
		(1.40782123 0.64821565 0.00000000)
		(1.42458101 0.67133416 0.00000000)
		(1.44134078 0.69307416 0.00000000)
		(1.45810056 0.71326073 0.00000000)
		(1.47486034 0.73173145 0.00000000)
		(1.49162011 0.74833772 0.00000000)
		(1.50837989 0.76294593 0.00000000)
		(1.52513966 0.77543853 0.00000000)
		(1.54189944 0.78571502 0.00000000)
		(1.55865922 0.79369272 0.00000000)
		(1.57541899 0.79930743 0.00000000)
		(1.59217877 0.80251399 0.00000000)
		(1.60893855 0.80328660 0.00000000)
		(1.62569832 0.80161903 0.00000000)
		(1.64245810 0.79752471 0.00000000)
		(1.65921788 0.79103658 0.00000000)
		(1.67597765 0.78220683 0.00000000)
		(1.69273743 0.77110652 0.00000000)
		(1.70949721 0.75782495 0.00000000)
		(1.72625698 0.74246898 0.00000000)
		(1.74301676 0.72516216 0.00000000)
		(1.75977654 0.70604375 0.00000000)
		(1.77653631 0.68526755 0.00000000)
		(1.79329609 0.66300074 0.00000000)
		(1.81005587 0.63942246 0.00000000)
		(1.82681564 0.61472242 0.00000000)
		(1.84357542 0.58909935 0.00000000)
		(1.86033520 0.56275941 0.00000000)
		(1.87709497 0.53591453 0.00000000)
		(1.89385475 0.50878068 0.00000000)
		(1.91061453 0.48157619 0.00000000)
		(1.92737430 0.45451993 0.00000000)
		(1.94413408 0.42782959 0.00000000)
		(1.96089385 0.40171992 0.00000000)
		(1.97765363 0.37640098 0.00000000)
		(1.99441341 0.35207649 0.00000000)
		(2.01117318 0.32894216 0.00000000)
		(2.02793296 0.30718413 0.00000000)
		(2.04469274 0.28697744 0.00000000)
		(2.06145251 0.26848468 0.00000000)
		(2.07821229 0.25185463 0.00000000)
		(2.09497207 0.23722111 0.00000000)
		(2.11173184 0.22470184 0.00000000)
		(2.12849162 0.21439755 0.00000000)
		(2.14525140 0.20639116 0.00000000)
		(2.16201117 0.20074707 0.00000000)
		(2.17877095 0.19751069 0.00000000)
		(2.19553073 0.19670808 0.00000000)
		(2.21229050 0.19834567 0.00000000)
		(2.22905028 0.20241031 0.00000000)
		(2.24581006 0.20886928 0.00000000)
		(2.26256983 0.21767062 0.00000000)
		(2.27932961 0.22874351 0.00000000)
		(2.29608939 0.24199887 0.00000000)
		(2.31284916 0.25733004 0.00000000)
		(2.32960894 0.27461368 0.00000000)
		(2.34636872 0.29371073 0.00000000)
		(2.36312849 0.31446752 0.00000000)
		(2.37988827 0.33671707 0.00000000)
		(2.39664804 0.36028035 0.00000000)
		(2.41340782 0.38496778 0.00000000)
		(2.43016760 0.41058074 0.00000000)
		(2.44692737 0.43691314 0.00000000)
		(2.46368715 0.46375312 0.00000000)
		(2.48044693 0.49088473 0.00000000)
		(2.49720670 0.51808969 0.00000000)
		(2.51396648 0.54514910 0.00000000)
		(2.53072626 0.57184525 0.00000000)