/*--------------------------------*- C++ -*----------------------------------*\\
/*--------------------------------*- C++ -*----------------------------------*\\
| =========                 |                                                 |
| \\\\      /  F ield         | OpenFOAM: The Open Source CFD Toolbox           |
|  \\\\    /   O peration     | Version:  v2012                                 |
|   \\\\  /    A nd           | Website:  www.openfoam.com                      |
|    \\\\/     M anipulation  |                                                 |
\\*---------------------------------------------------------------------------*/
FoamFile
{
    version     2.0;
    format      ascii;
    class       dictionary;
    object      blockMeshDict;
}
// * * * * * * * * * * * * * * * * * * * * * * * * * * * * * * * * * * * * * //

scale   0.01;

xmin -1;
xmax 5;
ymin 0;
ymax 0.5;
zmin 0;
zmax 0.1;

vertices
(
    (-1.00000000 -0.10039051 0.00000000)
    (4.00000000 -0.24674755 0.00000000)
    (4.00000000 0.25325245 0.00000000)
    (-1.00000000 0.39960949 0.00000000)
    (-1.00000000 -0.10039051 0.10000000)
    (4.00000000 -0.24674755 0.10000000)
    (4.00000000 0.25325245 0.10000000)
    (-1.00000000 0.39960949 0.10000000)
);

blocks
(
    hex (0 1 2 3 4 5 6 7) (200 20 1) simpleGrading (1 1 1)
);

edges
(
	polyLine 0 1
	(
		(-1.00000000 -0.10039051 0.00000000)
		(-0.98000000 -0.10039051 0.00000000)
		(-0.96000000 -0.10039051 0.00000000)
		(-0.94000000 -0.10039051 0.00000000)
		(-0.92000000 -0.10039051 0.00000000)
		(-0.90000000 -0.10039051 0.00000000)
		(-0.88000000 -0.10039051 0.00000000)
		(-0.86000000 -0.10039051 0.00000000)
		(-0.84000000 -0.10039051 0.00000000)
		(-0.82000000 -0.10039051 0.00000000)
		(-0.80000000 -0.10039051 0.00000000)
		(-0.78000000 -0.10039051 0.00000000)
		(-0.76000000 -0.10039051 0.00000000)
		(-0.74000000 -0.10039051 0.00000000)
		(-0.72000000 -0.10039051 0.00000000)
		(-0.70000000 -0.10039051 0.00000000)
		(-0.68000000 -0.10039051 0.00000000)
		(-0.66000000 -0.10039051 0.00000000)
		(-0.64000000 -0.10039051 0.00000000)
		(-0.62000000 -0.10039051 0.00000000)
		(-0.60000000 -0.10039051 0.00000000)
		(-0.58000000 -0.10039051 0.00000000)
		(-0.56000000 -0.10039051 0.00000000)
		(-0.54000000 -0.10039051 0.00000000)
		(-0.52000000 -0.10039051 0.00000000)
		(-0.50000000 -0.10039051 0.00000000)
		(-0.48000000 -0.10039051 0.00000000)
		(-0.46000000 -0.10039051 0.00000000)
		(-0.44000000 -0.10039051 0.00000000)
		(-0.42000000 -0.10039051 0.00000000)
		(-0.40000000 -0.10039051 0.00000000)
		(-0.38000000 -0.10039051 0.00000000)
		(-0.36000000 -0.10039051 0.00000000)
		(-0.34000000 -0.10039051 0.00000000)
		(-0.32000000 -0.10039051 0.00000000)
		(-0.30000000 -0.10039051 0.00000000)
		(-0.28000000 -0.10039051 0.00000000)
		(-0.26000000 -0.10039051 0.00000000)
		(-0.24000000 -0.10039051 0.00000000)
		(-0.22000000 -0.10039051 0.00000000)
		(-0.20000000 -0.10039051 0.00000000)
		(-0.18000000 -0.10039051 0.00000000)
		(-0.16000000 -0.10039051 0.00000000)
		(-0.14000000 -0.10039051 0.00000000)
		(-0.12000000 -0.10039051 0.00000000)
		(-0.10000000 -0.10039051 0.00000000)
		(-0.08162011 -0.10116611 0.00000000)
		(-0.06324022 -0.10349292 0.00000000)
		(-0.04486034 -0.10737093 0.00000000)
		(-0.02648045 -0.11280014 0.00000000)
		(-0.00810056 -0.11978056 0.00000000)
		(0.01027933 -0.12831218 0.00000000)
		(0.02865922 -0.13839500 0.00000000)
		(0.04703911 -0.15002903 0.00000000)
		(0.06541899 -0.16321426 0.00000000)
		(0.08379888 -0.17795070 0.00000000)
		(0.10055866 -0.19073189 0.00000000)
		(0.11731844 -0.20241866 0.00000000)
		(0.13407821 -0.21294394 0.00000000)
		(0.15083799 -0.22224734 0.00000000)
		(0.16759777 -0.23027547 0.00000000)
		(0.18435754 -0.23698228 0.00000000)
		(0.20111732 -0.24232927 0.00000000)
		(0.21787709 -0.24628577 0.00000000)
		(0.23463687 -0.24882907 0.00000000)
		(0.25139665 -0.24994459 0.00000000)
		(0.26815642 -0.24962591 0.00000000)
		(0.28491620 -0.24787487 0.00000000)
		(0.30167598 -0.24470151 0.00000000)
		(0.31843575 -0.24012404 0.00000000)
		(0.33519553 -0.23416874 0.00000000)
		(0.35195531 -0.22686977 0.00000000)
		(0.36871508 -0.21826901 0.00000000)
		(0.38547486 -0.20841581 0.00000000)
		(0.40223464 -0.19736672 0.00000000)
		(0.41899441 -0.18518513 0.00000000)
		(0.43575419 -0.17194094 0.00000000)
		(0.45251397 -0.15771014 0.00000000)
		(0.46927374 -0.14257440 0.00000000)
		(0.48603352 -0.12662056 0.00000000)
		(0.50279330 -0.10994017 0.00000000)
		(0.51955307 -0.09262894 0.00000000)
		(0.53631285 -0.07478620 0.00000000)
		(0.55307263 -0.05651433 0.00000000)
		(0.56983240 -0.03791819 0.00000000)
		(0.58659218 -0.01910446 0.00000000)
		(0.60335196 -0.00018112 0.00000000)
		(0.62011173 0.01874327 0.00000000)
		(0.63687151 0.03756010 0.00000000)
		(0.65363128 0.05616142 0.00000000)
		(0.67039106 0.07444047 0.00000000)
		(0.68715084 0.09229239 0.00000000)
		(0.70391061 0.10961473 0.00000000)
		(0.72067039 0.12630809 0.00000000)
		(0.73743017 0.14227670 0.00000000)
		(0.75418994 0.15742891 0.00000000)
		(0.77094972 0.17167780 0.00000000)
		(0.78770950 0.18494158 0.00000000)
		(0.80446927 0.19714417 0.00000000)
		(0.82122905 0.20821554 0.00000000)
		(0.83798883 0.21809216 0.00000000)
		(0.85474860 0.22671735 0.00000000)
		(0.87150838 0.23404164 0.00000000)
		(0.88826816 0.24002298 0.00000000)
		(0.90502793 0.24462707 0.00000000)
		(0.92178771 0.24782747 0.00000000)
		(0.93854749 0.24960584 0.00000000)
		(0.95530726 0.24995195 0.00000000)
		(0.97206704 0.24886383 0.00000000)
		(0.98882682 0.24634772 0.00000000)
		(1.00558659 0.24241806 0.00000000)
		(1.02234637 0.23709740 0.00000000)
		(1.03910615 0.23041626 0.00000000)
		(1.05586592 0.22241298 0.00000000)
		(1.07262570 0.21313349 0.00000000)
		(1.08938547 0.20263103 0.00000000)
		(1.10614525 0.19096587 0.00000000)
		(1.12290503 0.17820494 0.00000000)
		(1.13966480 0.16442146 0.00000000)
		(1.15642458 0.14969453 0.00000000)
		(1.17318436 0.13410864 0.00000000)
		(1.18994413 0.11775323 0.00000000)
		(1.20670391 0.10072215 0.00000000)
		(1.22346369 0.08311313 0.00000000)
		(1.24022346 0.06502719 0.00000000)
		(1.25698324 0.04656813 0.00000000)
		(1.27374302 0.02784186 0.00000000)
		(1.29050279 0.00895583 0.00000000)
		(1.30726257 -0.00998159 0.00000000)
		(1.32402235 -0.02886173 0.00000000)
		(1.34078212 -0.04757627 0.00000000)
		(1.35754190 -0.06601781 0.00000000)
		(1.37430168 -0.08408053 0.00000000)
		(1.39106145 -0.10166080 0.00000000)
		(1.40782123 -0.11865774 0.00000000)
		(1.42458101 -0.13497381 0.00000000)
		(1.44134078 -0.15051540 0.00000000)
		(1.45810056 -0.16519333 0.00000000)
		(1.47486034 -0.17892337 0.00000000)
		(1.49162011 -0.19162674 0.00000000)
		(1.50837989 -0.20323055 0.00000000)
		(1.52513966 -0.21366821 0.00000000)
		(1.54189944 -0.22287984 0.00000000)
		(1.55865922 -0.23081258 0.00000000)
		(1.57541899 -0.23742091 0.00000000)
		(1.59217877 -0.24266690 0.00000000)
		(1.60893855 -0.24652047 0.00000000)
		(1.62569832 -0.24895949 0.00000000)
		(1.64245810 -0.24996997 0.00000000)
		(1.65921788 -0.24954611 0.00000000)
		(1.67597765 -0.24769035 0.00000000)
		(1.69273743 -0.24441334 0.00000000)
		(1.70949721 -0.23973387 0.00000000)
		(1.72625698 -0.23367880 0.00000000)
		(1.74301676 -0.22628287 0.00000000)
		(1.75977654 -0.21758852 0.00000000)
		(1.77653631 -0.20764564 0.00000000)
		(1.79329609 -0.19651128 0.00000000)
		(1.81005587 -0.18424933 0.00000000)
		(1.82681564 -0.17093016 0.00000000)
		(1.84357542 -0.15663018 0.00000000)
		(1.86033520 -0.14143145 0.00000000)
		(1.87709497 -0.12542118 0.00000000)
		(1.89385475 -0.10869124 0.00000000)
		(1.91061453 -0.09133763 0.00000000)
		(1.92737430 -0.07345991 0.00000000)
		(1.94413408 -0.05516068 0.00000000)
		(1.96089385 -0.03654494 0.00000000)
		(1.97765363 -0.01771950 0.00000000)
		(1.99441341 0.00120761 0.00000000)
		(2.01117318 0.02012780 0.00000000)
		(2.02793296 0.03893249 0.00000000)
		(2.04469274 0.05751378 0.00000000)
		(2.06145251 0.07576506 0.00000000)
		(2.07821229 0.09358160 0.00000000)
		(2.09497207 0.11086116 0.00000000)
		(2.11173184 0.12750459 0.00000000)
		(2.12849162 0.14341640 0.00000000)
		(2.14525140 0.15850528 0.00000000)
		(2.16201117 0.17268466 0.00000000)
		(2.17877095 0.18587316 0.00000000)
		(2.19553073 0.19799511 0.00000000)
		(2.21229050 0.20898096 0.00000000)
		(2.22905028 0.21876767 0.00000000)
		(2.24581006 0.22729908 0.00000000)
		(2.26256983 0.23452625 0.00000000)
		(2.27932961 0.24040769 0.00000000)
		(2.29608939 0.24490966 0.00000000)
		(2.31284916 0.24800633 0.00000000)
		(2.32960894 0.24967994 0.00000000)
		(2.34636872 0.24992087 0.00000000)
		(2.36312849 0.24872774 0.00000000)
		(2.37988827 0.24610741 0.00000000)
		(2.39664804 0.24207490 0.00000000)
		(2.41340782 0.23665336 0.00000000)
		(2.43016760 0.22987389 0.00000000)
		(2.44692737 0.22177540 0.00000000)
		(2.46368715 0.21240435 0.00000000)
		(2.48044693 0.20181452 0.00000000)
		(2.49720670 0.19006667 0.00000000)
		(2.51396648 0.17722821 0.00000000)
		(2.53072626 0.16337281 0.00000000)
		(2.54748603 0.14857997 0.00000000)
		(2.56424581 0.13293457 0.00000000)
		(2.58100559 0.11652638 0.00000000)
		(2.59776536 0.09944957 0.00000000)
		(2.61452514 0.08180211 0.00000000)
		(2.63128492 0.06368526 0.00000000)
		(2.64804469 0.04520299 0.00000000)
		(2.66480447 0.02646134 0.00000000)
		(2.68156425 0.00756785 0.00000000)
		(2.69832402 -0.01136906 0.00000000)
		(2.71508380 -0.03024073 0.00000000)
		(2.73184358 -0.04893888 0.00000000)
		(2.74860335 -0.06735622 0.00000000)
		(2.76536313 -0.08538707 0.00000000)
		(2.78212291 -0.10292796 0.00000000)
		(2.79888268 -0.11987824 0.00000000)
		(2.81564246 -0.13614067 0.00000000)
		(2.83240223 -0.15162191 0.00000000)
		(2.84916201 -0.16623314 0.00000000)
		(2.86592179 -0.17989051 0.00000000)
		(2.88268156 -0.19251567 0.00000000)
		(2.89944134 -0.20403617 0.00000000)
		(2.91620112 -0.21438590 0.00000000)
		(2.93296089 -0.22350548 0.00000000)
		(2.95166480 -0.22792147 0.00000000)
		(2.97036872 -0.23187262 0.00000000)
		(2.98907263 -0.23535894 0.00000000)
		(3.00777654 -0.23838041 0.00000000)
		(3.02648045 -0.24093703 0.00000000)
		(3.04518436 -0.24302882 0.00000000)
		(3.06388827 -0.24465577 0.00000000)
		(3.08259218 -0.24581787 0.00000000)
		(3.10129609 -0.24651513 0.00000000)
		(3.12000000 -0.24674755 0.00000000)
		(3.14000000 -0.24674755 0.00000000)
		(3.16000000 -0.24674755 0.00000000)
		(3.18000000 -0.24674755 0.00000000)
		(3.20000000 -0.24674755 0.00000000)
		(3.22000000 -0.24674755 0.00000000)
		(3.24000000 -0.24674755 0.00000000)
		(3.26000000 -0.24674755 0.00000000)
		(3.28000000 -0.24674755 0.00000000)
		(3.30000000 -0.24674755 0.00000000)
		(3.32000000 -0.24674755 0.00000000)
		(3.34000000 -0.24674755 0.00000000)
		(3.36000000 -0.24674755 0.00000000)
		(3.38000000 -0.24674755 0.00000000)
		(3.40000000 -0.24674755 0.00000000)
		(3.42000000 -0.24674755 0.00000000)
		(3.44000000 -0.24674755 0.00000000)
		(3.46000000 -0.24674755 0.00000000)
		(3.48000000 -0.24674755 0.00000000)
		(3.50000000 -0.24674755 0.00000000)
		(3.52000000 -0.24674755 0.00000000)
		(3.54000000 -0.24674755 0.00000000)
		(3.56000000 -0.24674755 0.00000000)
		(3.58000000 -0.24674755 0.00000000)
		(3.60000000 -0.24674755 0.00000000)
		(3.62000000 -0.24674755 0.00000000)
		(3.64000000 -0.24674755 0.00000000)
		(3.66000000 -0.24674755 0.00000000)
		(3.68000000 -0.24674755 0.00000000)
		(3.70000000 -0.24674755 0.00000000)
		(3.72000000 -0.24674755 0.00000000)
		(3.74000000 -0.24674755 0.00000000)
		(3.76000000 -0.24674755 0.00000000)
		(3.78000000 -0.24674755 0.00000000)
		(3.80000000 -0.24674755 0.00000000)
		(3.82000000 -0.24674755 0.00000000)
		(3.84000000 -0.24674755 0.00000000)
		(3.86000000 -0.24674755 0.00000000)
		(3.88000000 -0.24674755 0.00000000)
		(3.90000000 -0.24674755 0.00000000)
		(3.92000000 -0.24674755 0.00000000)
		(3.94000000 -0.24674755 0.00000000)
		(3.96000000 -0.24674755 0.00000000)
		(3.98000000 -0.24674755 0.00000000)
		(4.00000000 -0.24674755 0.00000000)
	)
	polyLine 4 5
	(
		(-1.00000000 -0.10039051 0.10000000)
		(-0.98000000 -0.10039051 0.10000000)
		(-0.96000000 -0.10039051 0.10000000)
		(-0.94000000 -0.10039051 0.10000000)
		(-0.92000000 -0.10039051 0.10000000)
		(-0.90000000 -0.10039051 0.10000000)
		(-0.88000000 -0.10039051 0.10000000)
		(-0.86000000 -0.10039051 0.10000000)
		(-0.84000000 -0.10039051 0.10000000)
		(-0.82000000 -0.10039051 0.10000000)
		(-0.80000000 -0.10039051 0.10000000)
		(-0.78000000 -0.10039051 0.10000000)
		(-0.76000000 -0.10039051 0.10000000)
		(-0.74000000 -0.10039051 0.10000000)
		(-0.72000000 -0.10039051 0.10000000)
		(-0.70000000 -0.10039051 0.10000000)
		(-0.68000000 -0.10039051 0.10000000)
		(-0.66000000 -0.10039051 0.10000000)
		(-0.64000000 -0.10039051 0.10000000)
		(-0.62000000 -0.10039051 0.10000000)
		(-0.60000000 -0.10039051 0.10000000)
		(-0.58000000 -0.10039051 0.10000000)
		(-0.56000000 -0.10039051 0.10000000)
		(-0.54000000 -0.10039051 0.10000000)
		(-0.52000000 -0.10039051 0.10000000)
		(-0.50000000 -0.10039051 0.10000000)
		(-0.48000000 -0.10039051 0.10000000)
		(-0.46000000 -0.10039051 0.10000000)
		(-0.44000000 -0.10039051 0.10000000)
		(-0.42000000 -0.10039051 0.10000000)
		(-0.40000000 -0.10039051 0.10000000)
		(-0.38000000 -0.10039051 0.10000000)
		(-0.36000000 -0.10039051 0.10000000)
		(-0.34000000 -0.10039051 0.10000000)
		(-0.32000000 -0.10039051 0.10000000)
		(-0.30000000 -0.10039051 0.10000000)
		(-0.28000000 -0.10039051 0.10000000)
		(-0.26000000 -0.10039051 0.10000000)
		(-0.24000000 -0.10039051 0.10000000)
		(-0.22000000 -0.10039051 0.10000000)
		(-0.20000000 -0.10039051 0.10000000)
		(-0.18000000 -0.10039051 0.10000000)
		(-0.16000000 -0.10039051 0.10000000)
		(-0.14000000 -0.10039051 0.10000000)
		(-0.12000000 -0.10039051 0.10000000)
		(-0.10000000 -0.10039051 0.10000000)
		(-0.08162011 -0.10116611 0.10000000)
		(-0.06324022 -0.10349292 0.10000000)
		(-0.04486034 -0.10737093 0.10000000)
		(-0.02648045 -0.11280014 0.10000000)
		(-0.00810056 -0.11978056 0.10000000)
		(0.01027933 -0.12831218 0.10000000)
		(0.02865922 -0.13839500 0.10000000)
		(0.04703911 -0.15002903 0.10000000)
		(0.06541899 -0.16321426 0.10000000)
		(0.08379888 -0.17795070 0.10000000)
		(0.10055866 -0.19073189 0.10000000)
		(0.11731844 -0.20241866 0.10000000)
		(0.13407821 -0.21294394 0.10000000)
		(0.15083799 -0.22224734 0.10000000)
		(0.16759777 -0.23027547 0.10000000)
		(0.18435754 -0.23698228 0.10000000)
		(0.20111732 -0.24232927 0.10000000)
		(0.21787709 -0.24628577 0.10000000)
		(0.23463687 -0.24882907 0.10000000)
		(0.25139665 -0.24994459 0.10000000)
		(0.26815642 -0.24962591 0.10000000)
		(0.28491620 -0.24787487 0.10000000)
		(0.30167598 -0.24470151 0.10000000)
		(0.31843575 -0.24012404 0.10000000)
		(0.33519553 -0.23416874 0.10000000)
		(0.35195531 -0.22686977 0.10000000)
		(0.36871508 -0.21826901 0.10000000)
		(0.38547486 -0.20841581 0.10000000)
		(0.40223464 -0.19736672 0.10000000)
		(0.41899441 -0.18518513 0.10000000)
		(0.43575419 -0.17194094 0.10000000)
		(0.45251397 -0.15771014 0.10000000)
		(0.46927374 -0.14257440 0.10000000)
		(0.48603352 -0.12662056 0.10000000)
		(0.50279330 -0.10994017 0.10000000)
		(0.51955307 -0.09262894 0.10000000)
		(0.53631285 -0.07478620 0.10000000)
		(0.55307263 -0.05651433 0.10000000)
		(0.56983240 -0.03791819 0.10000000)
		(0.58659218 -0.01910446 0.10000000)
		(0.60335196 -0.00018112 0.10000000)
		(0.62011173 0.01874327 0.10000000)
		(0.63687151 0.03756010 0.10000000)
		(0.65363128 0.05616142 0.10000000)
		(0.67039106 0.07444047 0.10000000)
		(0.68715084 0.09229239 0.10000000)
		(0.70391061 0.10961473 0.10000000)
		(0.72067039 0.12630809 0.10000000)
		(0.73743017 0.14227670 0.10000000)
		(0.75418994 0.15742891 0.10000000)
		(0.77094972 0.17167780 0.10000000)
		(0.78770950 0.18494158 0.10000000)
		(0.80446927 0.19714417 0.10000000)
		(0.82122905 0.20821554 0.10000000)
		(0.83798883 0.21809216 0.10000000)
		(0.85474860 0.22671735 0.10000000)
		(0.87150838 0.23404164 0.10000000)
		(0.88826816 0.24002298 0.10000000)
		(0.90502793 0.24462707 0.10000000)
		(0.92178771 0.24782747 0.10000000)
		(0.93854749 0.24960584 0.10000000)
		(0.95530726 0.24995195 0.10000000)
		(0.97206704 0.24886383 0.10000000)
		(0.98882682 0.24634772 0.10000000)
		(1.00558659 0.24241806 0.10000000)
		(1.02234637 0.23709740 0.10000000)
		(1.03910615 0.23041626 0.10000000)
		(1.05586592 0.22241298 0.10000000)
		(1.07262570 0.21313349 0.10000000)
		(1.08938547 0.20263103 0.10000000)
		(1.10614525 0.19096587 0.10000000)
		(1.12290503 0.17820494 0.10000000)
		(1.13966480 0.16442146 0.10000000)
		(1.15642458 0.14969453 0.10000000)
		(1.17318436 0.13410864 0.10000000)
		(1.18994413 0.11775323 0.10000000)
		(1.20670391 0.10072215 0.10000000)
		(1.22346369 0.08311313 0.10000000)
		(1.24022346 0.06502719 0.10000000)
		(1.25698324 0.04656813 0.10000000)
		(1.27374302 0.02784186 0.10000000)
		(1.29050279 0.00895583 0.10000000)
		(1.30726257 -0.00998159 0.10000000)
		(1.32402235 -0.02886173 0.10000000)
		(1.34078212 -0.04757627 0.10000000)
		(1.35754190 -0.06601781 0.10000000)
		(1.37430168 -0.08408053 0.10000000)
		(1.39106145 -0.10166080 0.10000000)
		(1.40782123 -0.11865774 0.10000000)
		(1.42458101 -0.13497381 0.10000000)
		(1.44134078 -0.15051540 0.10000000)
		(1.45810056 -0.16519333 0.10000000)
		(1.47486034 -0.17892337 0.10000000)
		(1.49162011 -0.19162674 0.10000000)
		(1.50837989 -0.20323055 0.10000000)
		(1.52513966 -0.21366821 0.10000000)
		(1.54189944 -0.22287984 0.10000000)
		(1.55865922 -0.23081258 0.10000000)
		(1.57541899 -0.23742091 0.10000000)
		(1.59217877 -0.24266690 0.10000000)
		(1.60893855 -0.24652047 0.10000000)
		(1.62569832 -0.24895949 0.10000000)
		(1.64245810 -0.24996997 0.10000000)
		(1.65921788 -0.24954611 0.10000000)
		(1.67597765 -0.24769035 0.10000000)
		(1.69273743 -0.24441334 0.10000000)
		(1.70949721 -0.23973387 0.10000000)
		(1.72625698 -0.23367880 0.10000000)
		(1.74301676 -0.22628287 0.10000000)
		(1.75977654 -0.21758852 0.10000000)
		(1.77653631 -0.20764564 0.10000000)
		(1.79329609 -0.19651128 0.10000000)
		(1.81005587 -0.18424933 0.10000000)
		(1.82681564 -0.17093016 0.10000000)
		(1.84357542 -0.15663018 0.10000000)
		(1.86033520 -0.14143145 0.10000000)
		(1.87709497 -0.12542118 0.10000000)
		(1.89385475 -0.10869124 0.10000000)
		(1.91061453 -0.09133763 0.10000000)
		(1.92737430 -0.07345991 0.10000000)
		(1.94413408 -0.05516068 0.10000000)
		(1.96089385 -0.03654494 0.10000000)
		(1.97765363 -0.01771950 0.10000000)
		(1.99441341 0.00120761 0.10000000)
		(2.01117318 0.02012780 0.10000000)
		(2.02793296 0.03893249 0.10000000)
		(2.04469274 0.05751378 0.10000000)
		(2.06145251 0.07576506 0.10000000)
		(2.07821229 0.09358160 0.10000000)
		(2.09497207 0.11086116 0.10000000)
		(2.11173184 0.12750459 0.10000000)
		(2.12849162 0.14341640 0.10000000)
		(2.14525140 0.15850528 0.10000000)
		(2.16201117 0.17268466 0.10000000)
		(2.17877095 0.18587316 0.10000000)
		(2.19553073 0.19799511 0.10000000)
		(2.21229050 0.20898096 0.10000000)
		(2.22905028 0.21876767 0.10000000)
		(2.24581006 0.22729908 0.10000000)
		(2.26256983 0.23452625 0.10000000)
		(2.27932961 0.24040769 0.10000000)
		(2.29608939 0.24490966 0.10000000)
		(2.31284916 0.24800633 0.10000000)
		(2.32960894 0.24967994 0.10000000)
		(2.34636872 0.24992087 0.10000000)
		(2.36312849 0.24872774 0.10000000)
		(2.37988827 0.24610741 0.10000000)
		(2.39664804 0.24207490 0.10000000)
		(2.41340782 0.23665336 0.10000000)
		(2.43016760 0.22987389 0.10000000)
		(2.44692737 0.22177540 0.10000000)
		(2.46368715 0.21240435 0.10000000)
		(2.48044693 0.20181452 0.10000000)
		(2.49720670 0.19006667 0.10000000)
		(2.51396648 0.17722821 0.10000000)
		(2.53072626 0.16337281 0.10000000)
		(2.54748603 0.14857997 0.10000000)
		(2.56424581 0.13293457 0.10000000)
		(2.58100559 0.11652638 0.10000000)
		(2.59776536 0.09944957 0.10000000)
		(2.61452514 0.08180211 0.10000000)
		(2.63128492 0.06368526 0.10000000)
		(2.64804469 0.04520299 0.10000000)
		(2.66480447 0.02646134 0.10000000)
		(2.68156425 0.00756785 0.10000000)
		(2.69832402 -0.01136906 0.10000000)
		(2.71508380 -0.03024073 0.10000000)
		(2.73184358 -0.04893888 0.10000000)
		(2.74860335 -0.06735622 0.10000000)
		(2.76536313 -0.08538707 0.10000000)
		(2.78212291 -0.10292796 0.10000000)
		(2.79888268 -0.11987824 0.10000000)
		(2.81564246 -0.13614067 0.10000000)
		(2.83240223 -0.15162191 0.10000000)
		(2.84916201 -0.16623314 0.10000000)
		(2.86592179 -0.17989051 0.10000000)
		(2.88268156 -0.19251567 0.10000000)
		(2.89944134 -0.20403617 0.10000000)
		(2.91620112 -0.21438590 0.10000000)
		(2.93296089 -0.22350548 0.10000000)
		(2.95166480 -0.22792147 0.10000000)
		(2.97036872 -0.23187262 0.10000000)
		(2.98907263 -0.23535894 0.10000000)
		(3.00777654 -0.23838041 0.10000000)
		(3.02648045 -0.24093703 0.10000000)
		(3.04518436 -0.24302882 0.10000000)
		(3.06388827 -0.24465577 0.10000000)
		(3.08259218 -0.24581787 0.10000000)
		(3.10129609 -0.24651513 0.10000000)
		(3.12000000 -0.24674755 0.10000000)
		(3.14000000 -0.24674755 0.10000000)
		(3.16000000 -0.24674755 0.10000000)
		(3.18000000 -0.24674755 0.10000000)
		(3.20000000 -0.24674755 0.10000000)
		(3.22000000 -0.24674755 0.10000000)
		(3.24000000 -0.24674755 0.10000000)
		(3.26000000 -0.24674755 0.10000000)
		(3.28000000 -0.24674755 0.10000000)
		(3.30000000 -0.24674755 0.10000000)
		(3.32000000 -0.24674755 0.10000000)
		(3.34000000 -0.24674755 0.10000000)
		(3.36000000 -0.24674755 0.10000000)
		(3.38000000 -0.24674755 0.10000000)
		(3.40000000 -0.24674755 0.10000000)
		(3.42000000 -0.24674755 0.10000000)
		(3.44000000 -0.24674755 0.10000000)
		(3.46000000 -0.24674755 0.10000000)
		(3.48000000 -0.24674755 0.10000000)
		(3.50000000 -0.24674755 0.10000000)
		(3.52000000 -0.24674755 0.10000000)
		(3.54000000 -0.24674755 0.10000000)
		(3.56000000 -0.24674755 0.10000000)
		(3.58000000 -0.24674755 0.10000000)
		(3.60000000 -0.24674755 0.10000000)
		(3.62000000 -0.24674755 0.10000000)
		(3.64000000 -0.24674755 0.10000000)
		(3.66000000 -0.24674755 0.10000000)
		(3.68000000 -0.24674755 0.10000000)
		(3.70000000 -0.24674755 0.10000000)
		(3.72000000 -0.24674755 0.10000000)
		(3.74000000 -0.24674755 0.10000000)
		(3.76000000 -0.24674755 0.10000000)
		(3.78000000 -0.24674755 0.10000000)
		(3.80000000 -0.24674755 0.10000000)
		(3.82000000 -0.24674755 0.10000000)
		(3.84000000 -0.24674755 0.10000000)
		(3.86000000 -0.24674755 0.10000000)
		(3.88000000 -0.24674755 0.10000000)
		(3.90000000 -0.24674755 0.10000000)
		(3.92000000 -0.24674755 0.10000000)
		(3.94000000 -0.24674755 0.10000000)
		(3.96000000 -0.24674755 0.10000000)
		(3.98000000 -0.24674755 0.10000000)
		(4.00000000 -0.24674755 0.10000000)
	)
	polyLine 3 2
	(
		(-1.00000000 0.39960949 0.00000000)
		(-0.98000000 0.40028812 0.00000000)
		(-0.96000000 0.40096676 0.00000000)
		(-0.94000000 0.40164540 0.00000000)
		(-0.92000000 0.40232403 0.00000000)
		(-0.90000000 0.40300267 0.00000000)
		(-0.88000000 0.40368130 0.00000000)
		(-0.86000000 0.40435994 0.00000000)
		(-0.84000000 0.40503857 0.00000000)
		(-0.82000000 0.40571721 0.00000000)
		(-0.80000000 0.40639584 0.00000000)
		(-0.78000000 0.40707448 0.00000000)
		(-0.76000000 0.40775311 0.00000000)
		(-0.74000000 0.40843175 0.00000000)
		(-0.72000000 0.40911038 0.00000000)
		(-0.70000000 0.40978902 0.00000000)
		(-0.68000000 0.41046766 0.00000000)
		(-0.66000000 0.41114629 0.00000000)
		(-0.64000000 0.41182493 0.00000000)
		(-0.62000000 0.41250356 0.00000000)
		(-0.60000000 0.41318220 0.00000000)
		(-0.58000000 0.41386083 0.00000000)
		(-0.56000000 0.41453947 0.00000000)
		(-0.54000000 0.41521810 0.00000000)
		(-0.52000000 0.41589674 0.00000000)
		(-0.50000000 0.41657537 0.00000000)
		(-0.48000000 0.41725401 0.00000000)
		(-0.46000000 0.41793264 0.00000000)
		(-0.44000000 0.41861128 0.00000000)
		(-0.42000000 0.41928992 0.00000000)
		(-0.40000000 0.41996855 0.00000000)
		(-0.38000000 0.42064719 0.00000000)
		(-0.36000000 0.42132582 0.00000000)
		(-0.34000000 0.42200446 0.00000000)
		(-0.32000000 0.42268309 0.00000000)
		(-0.30000000 0.42336173 0.00000000)
		(-0.28000000 0.42404036 0.00000000)
		(-0.26000000 0.42471900 0.00000000)
		(-0.24000000 0.42539763 0.00000000)
		(-0.22000000 0.42607627 0.00000000)
		(-0.20000000 0.42675490 0.00000000)
		(-0.18000000 0.42743354 0.00000000)
		(-0.16000000 0.42811218 0.00000000)
		(-0.14000000 0.42879081 0.00000000)
		(-0.12000000 0.42946945 0.00000000)
		(-0.10000000 0.43014808 0.00000000)
		(-0.08162011 0.43096963 0.00000000)
		(-0.06324022 0.43051628 0.00000000)
		(-0.04486034 0.42878804 0.00000000)
		(-0.02648045 0.42578490 0.00000000)
		(-0.00810056 0.42150687 0.00000000)
		(0.01027933 0.41595395 0.00000000)
		(0.02865922 0.40912613 0.00000000)
		(0.04703911 0.40102341 0.00000000)
		(0.06541899 0.39164580 0.00000000)
		(0.08379888 0.38099330 0.00000000)
		(0.10055866 0.37244572 0.00000000)
		(0.11731844 0.36463006 0.00000000)
		(0.13407821 0.35759115 0.00000000)
		(0.15083799 0.35136939 0.00000000)
		(0.16759777 0.34600047 0.00000000)
		(0.18435754 0.34151521 0.00000000)
		(0.20111732 0.33793935 0.00000000)
		(0.21787709 0.33529339 0.00000000)
		(0.23463687 0.33359252 0.00000000)
		(0.25139665 0.33284651 0.00000000)
		(0.26815642 0.33305963 0.00000000)
		(0.28491620 0.33423066 0.00000000)
		(0.30167598 0.33635288 0.00000000)
		(0.31843575 0.33941412 0.00000000)
		(0.33519553 0.34339680 0.00000000)
		(0.35195531 0.34827808 0.00000000)
		(0.36871508 0.35402994 0.00000000)
		(0.38547486 0.36061939 0.00000000)
		(0.40223464 0.36800860 0.00000000)
		(0.41899441 0.37615519 0.00000000)
		(0.43575419 0.38501240 0.00000000)
		(0.45251397 0.39452942 0.00000000)
		(0.46927374 0.40465163 0.00000000)
		(0.48603352 0.41532095 0.00000000)
		(0.50279330 0.42647617 0.00000000)
		(0.51955307 0.43805327 0.00000000)
		(0.53631285 0.44998582 0.00000000)
		(0.55307263 0.46220535 0.00000000)
		(0.56983240 0.47464175 0.00000000)
		(0.58659218 0.48722366 0.00000000)
		(0.60335196 0.49987888 0.00000000)
		(0.62011173 0.51253479 0.00000000)
		(0.63687151 0.52511878 0.00000000)
		(0.65363128 0.53755863 0.00000000)
		(0.67039106 0.54978297 0.00000000)
		(0.68715084 0.56172166 0.00000000)
		(0.70391061 0.57330619 0.00000000)
		(0.72067039 0.58447008 0.00000000)
		(0.73743017 0.59514928 0.00000000)
		(0.75418994 0.60528250 0.00000000)
		(0.77094972 0.61481162 0.00000000)
		(0.78770950 0.62368194 0.00000000)
		(0.80446927 0.63184257 0.00000000)
		(0.82122905 0.63924668 0.00000000)
		(0.83798883 0.64585179 0.00000000)
		(0.85474860 0.65161999 0.00000000)
		(0.87150838 0.65651820 0.00000000)
		(0.88826816 0.66051830 0.00000000)
		(0.90502793 0.66359733 0.00000000)
		(0.92178771 0.66573764 0.00000000)
		(0.93854749 0.66692694 0.00000000)
		(0.95530726 0.66715841 0.00000000)
		(0.97206704 0.66643072 0.00000000)
		(0.98882682 0.66474804 0.00000000)
		(1.00558659 0.66212003 0.00000000)
		(1.02234637 0.65856177 0.00000000)
		(1.03910615 0.65409368 0.00000000)
		(1.05586592 0.64874139 0.00000000)
		(1.07262570 0.64253562 0.00000000)
		(1.08938547 0.63551197 0.00000000)
		(1.10614525 0.62771075 0.00000000)
		(1.12290503 0.61917673 0.00000000)
		(1.13966480 0.60995886 0.00000000)
		(1.15642458 0.60011004 0.00000000)
		(1.17318436 0.58968679 0.00000000)
		(1.18994413 0.57874891 0.00000000)
		(1.20670391 0.56735917 0.00000000)
		(1.22346369 0.55558292 0.00000000)
		(1.24022346 0.54348773 0.00000000)
		(1.25698324 0.53114300 0.00000000)
		(1.27374302 0.51861958 0.00000000)
		(1.29050279 0.50598932 0.00000000)
		(1.30726257 0.49332469 0.00000000)
		(1.32402235 0.48069836 0.00000000)
		(1.34078212 0.46818279 0.00000000)
		(1.35754190 0.45584979 0.00000000)
		(1.37430168 0.44377012 0.00000000)
		(1.39106145 0.43201310 0.00000000)
		(1.40782123 0.42064619 0.00000000)
		(1.42458101 0.40973462 0.00000000)
		(1.44134078 0.39934099 0.00000000)
		(1.45810056 0.38952495 0.00000000)
		(1.47486034 0.38034282 0.00000000)
		(1.49162011 0.37184728 0.00000000)
		(1.50837989 0.36408709 0.00000000)
		(1.52513966 0.35710678 0.00000000)
		(1.54189944 0.35094639 0.00000000)
		(1.55865922 0.34564127 0.00000000)
		(1.57541899 0.34122188 0.00000000)
		(1.59217877 0.33771355 0.00000000)
		(1.60893855 0.33513643 0.00000000)
		(1.62569832 0.33350531 0.00000000)
		(1.64245810 0.33282954 0.00000000)
		(1.65921788 0.33311300 0.00000000)
		(1.67597765 0.33435406 0.00000000)
		(1.69273743 0.33654560 0.00000000)
		(1.70949721 0.33967506 0.00000000)
		(1.72625698 0.34372446 0.00000000)
		(1.74301676 0.34867058 0.00000000)
		(1.75977654 0.35448503 0.00000000)
		(1.77653631 0.36113445 0.00000000)
		(1.79329609 0.36858069 0.00000000)
		(1.81005587 0.37678101 0.00000000)
		(1.82681564 0.38568837 0.00000000)
		(1.84357542 0.39525166 0.00000000)
		(1.86033520 0.40541600 0.00000000)
		(1.87709497 0.41612306 0.00000000)
		(1.89385475 0.42731141 0.00000000)
		(1.91061453 0.43891685 0.00000000)
		(1.92737430 0.45087279 0.00000000)
		(1.94413408 0.46311062 0.00000000)
		(1.96089385 0.47556013 0.00000000)
		(1.97765363 0.48814987 0.00000000)
		(1.99441341 0.50080761 0.00000000)
		(2.01117318 0.51346071 0.00000000)
		(2.02793296 0.52603658 0.00000000)
		(2.04469274 0.53846304 0.00000000)
		(2.06145251 0.55066881 0.00000000)
		(2.07821229 0.56258383 0.00000000)
		(2.09497207 0.57413975 0.00000000)
		(2.11173184 0.58527025 0.00000000)
		(2.12849162 0.59591147 0.00000000)
		(2.14525140 0.60600234 0.00000000)
		(2.16201117 0.61548497 0.00000000)
		(2.17877095 0.62430494 0.00000000)
		(2.19553073 0.63241164 0.00000000)
		(2.21229050 0.63975856 0.00000000)
		(2.22905028 0.64630355 0.00000000)
		(2.24581006 0.65200903 0.00000000)
		(2.26256983 0.65684228 0.00000000)
		(2.27932961 0.66077557 0.00000000)
		(2.29608939 0.66378632 0.00000000)
		(2.31284916 0.66585726 0.00000000)
		(2.32960894 0.66697650 0.00000000)
		(2.34636872 0.66713763 0.00000000)
		(2.36312849 0.66633971 0.00000000)
		(2.37988827 0.66458733 0.00000000)
		(2.39664804 0.66189054 0.00000000)
		(2.41340782 0.65826482 0.00000000)
		(2.43016760 0.65373097 0.00000000)
		(2.44692737 0.64831500 0.00000000)
		(2.46368715 0.64204800 0.00000000)