/*--------------------------------*- C++ -*----------------------------------*\\
/*--------------------------------*- C++ -*----------------------------------*\\
| =========                 |                                                 |
| \\\\      /  F ield         | OpenFOAM: The Open Source CFD Toolbox           |
|  \\\\    /   O peration     | Version:  v2012                                 |
|   \\\\  /    A nd           | Website:  www.openfoam.com                      |
|    \\\\/     M anipulation  |                                                 |
\\*---------------------------------------------------------------------------*/
FoamFile
{
    version     2.0;
    format      ascii;
    class       dictionary;
    object      blockMeshDict;
}
// * * * * * * * * * * * * * * * * * * * * * * * * * * * * * * * * * * * * * //

scale   0.01;

xmin -1;
xmax 5;
ymin 0;
ymax 0.5;
zmin 0;
zmax 0.1;

vertices
(
    (-1.00000000 -0.20460169 0.00000000)
    (4.00000000 0.12803813 0.00000000)
    (4.00000000 0.62803813 0.00000000)
    (-1.00000000 0.29539831 0.00000000)
    (-1.00000000 -0.20460169 0.10000000)
    (4.00000000 0.12803813 0.10000000)
    (4.00000000 0.62803813 0.10000000)
    (-1.00000000 0.29539831 0.10000000)
);

blocks
(
    hex (0 1 2 3 4 5 6 7) (200 20 1) simpleGrading (1 1 1)
);

edges
(
	polyLine 0 1
	(
		(-1.00000000 -0.20460169 0.00000000)
		(-0.98000000 -0.20460169 0.00000000)
		(-0.96000000 -0.20460169 0.00000000)
		(-0.94000000 -0.20460169 0.00000000)
		(-0.92000000 -0.20460169 0.00000000)
		(-0.90000000 -0.20460169 0.00000000)
		(-0.88000000 -0.20460169 0.00000000)
		(-0.86000000 -0.20460169 0.00000000)
		(-0.84000000 -0.20460169 0.00000000)
		(-0.82000000 -0.20460169 0.00000000)
		(-0.80000000 -0.20460169 0.00000000)
		(-0.78000000 -0.20460169 0.00000000)
		(-0.76000000 -0.20460169 0.00000000)
		(-0.74000000 -0.20460169 0.00000000)
		(-0.72000000 -0.20460169 0.00000000)
		(-0.70000000 -0.20460169 0.00000000)
		(-0.68000000 -0.20460169 0.00000000)
		(-0.66000000 -0.20460169 0.00000000)
		(-0.64000000 -0.20460169 0.00000000)
		(-0.62000000 -0.20460169 0.00000000)
		(-0.60000000 -0.20460169 0.00000000)
		(-0.58000000 -0.20460169 0.00000000)
		(-0.56000000 -0.20460169 0.00000000)
		(-0.54000000 -0.20460169 0.00000000)
		(-0.52000000 -0.20460169 0.00000000)
		(-0.50000000 -0.20460169 0.00000000)
		(-0.48000000 -0.20460169 0.00000000)
		(-0.46000000 -0.20460169 0.00000000)
		(-0.44000000 -0.20460169 0.00000000)
		(-0.42000000 -0.20460169 0.00000000)
		(-0.40000000 -0.20460169 0.00000000)
		(-0.38000000 -0.20460169 0.00000000)
		(-0.36000000 -0.20460169 0.00000000)
		(-0.34000000 -0.20460169 0.00000000)
		(-0.32000000 -0.20460169 0.00000000)
		(-0.30000000 -0.20460169 0.00000000)
		(-0.28000000 -0.20460169 0.00000000)
		(-0.26000000 -0.20460169 0.00000000)
		(-0.24000000 -0.20460169 0.00000000)
		(-0.22000000 -0.20460169 0.00000000)
		(-0.20000000 -0.20460169 0.00000000)
		(-0.18000000 -0.20460169 0.00000000)
		(-0.16000000 -0.20460169 0.00000000)
		(-0.14000000 -0.20460169 0.00000000)
		(-0.12000000 -0.20460169 0.00000000)
		(-0.10000000 -0.20460169 0.00000000)
		(-0.08162011 -0.20389594 0.00000000)
		(-0.06324022 -0.20177871 0.00000000)
		(-0.04486034 -0.19824998 0.00000000)
		(-0.02648045 -0.19330976 0.00000000)
		(-0.00810056 -0.18695805 0.00000000)
		(0.01027933 -0.17919484 0.00000000)
		(0.02865922 -0.17002015 0.00000000)
		(0.04703911 -0.15943396 0.00000000)
		(0.06541899 -0.14743628 0.00000000)
		(0.08379888 -0.13402711 0.00000000)
		(0.10055866 -0.11705114 0.00000000)
		(0.11731844 -0.09935309 0.00000000)
		(0.13407821 -0.08104214 0.00000000)
		(0.15083799 -0.06223125 0.00000000)
		(0.16759777 -0.04303647 0.00000000)
		(0.18435754 -0.02357619 0.00000000)
		(0.20111732 -0.00397048 0.00000000)
		(0.21787709 0.01565973 0.00000000)
		(0.23463687 0.03519333 0.00000000)
		(0.25139665 0.05450983 0.00000000)
		(0.26815642 0.07349006 0.00000000)
		(0.28491620 0.09201694 0.00000000)
		(0.30167598 0.10997618 0.00000000)
		(0.31843575 0.12725699 0.00000000)
		(0.33519553 0.14375276 0.00000000)
		(0.35195531 0.15936174 0.00000000)
		(0.36871508 0.17398762 0.00000000)
		(0.38547486 0.18754020 0.00000000)
		(0.40223464 0.19993586 0.00000000)
		(0.41899441 0.21109814 0.00000000)
		(0.43575419 0.22095817 0.00000000)
		(0.45251397 0.22945514 0.00000000)
		(0.46927374 0.23653662 0.00000000)
		(0.48603352 0.24215893 0.00000000)
		(0.50279330 0.24628739 0.00000000)
		(0.51955307 0.24889653 0.00000000)
		(0.53631285 0.24997025 0.00000000)
		(0.55307263 0.24950192 0.00000000)
		(0.56983240 0.24749445 0.00000000)
		(0.58659218 0.24396021 0.00000000)
		(0.60335196 0.23892100 0.00000000)
		(0.62011173 0.23240792 0.00000000)
		(0.63687151 0.22446113 0.00000000)
		(0.65363128 0.21512967 0.00000000)
		(0.67039106 0.20447109 0.00000000)
		(0.68715084 0.19255115 0.00000000)
		(0.70391061 0.17944339 0.00000000)
		(0.72067039 0.16522866 0.00000000)
		(0.73743017 0.14999464 0.00000000)
		(0.75418994 0.13383533 0.00000000)
		(0.77094972 0.11685040 0.00000000)
		(0.78770950 0.09914463 0.00000000)
		(0.80446927 0.08082725 0.00000000)
		(0.82122905 0.06201125 0.00000000)
		(0.83798883 0.04281272 0.00000000)
		(0.85474860 0.02335007 0.00000000)
		(0.87150838 0.00374338 0.00000000)
		(0.88826816 -0.01588640 0.00000000)
		(0.90502793 -0.03541818 0.00000000)
		(0.92178771 -0.05473147 0.00000000)
		(0.93854749 -0.07370712 0.00000000)
		(0.95530726 -0.09222808 0.00000000)
		(0.97206704 -0.11018010 0.00000000)
		(0.98882682 -0.12745243 0.00000000)
		(1.00558659 -0.14393852 0.00000000)
		(1.02234637 -0.15953667 0.00000000)
		(1.03910615 -0.17415065 0.00000000)
		(1.05586592 -0.18769031 0.00000000)
		(1.07262570 -0.20007213 0.00000000)
		(1.08938547 -0.21121973 0.00000000)
		(1.10614525 -0.22106433 0.00000000)
		(1.12290503 -0.22954521 0.00000000)
		(1.13966480 -0.23661005 0.00000000)
		(1.15642458 -0.24221527 0.00000000)
		(1.17318436 -0.24632629 0.00000000)
		(1.18994413 -0.24891774 0.00000000)
		(1.20670391 -0.24997365 0.00000000)
		(1.22346369 -0.24948749 0.00000000)
		(1.24022346 -0.24746227 0.00000000)
		(1.25698324 -0.24391049 0.00000000)
		(1.27374302 -0.23885404 0.00000000)
		(1.29050279 -0.23232413 0.00000000)
		(1.30726257 -0.22436103 0.00000000)
		(1.32402235 -0.21501388 0.00000000)
		(1.34078212 -0.20434033 0.00000000)
		(1.35754190 -0.19240622 0.00000000)
		(1.37430168 -0.17928517 0.00000000)
		(1.39106145 -0.16505814 0.00000000)
		(1.40782123 -0.14981288 0.00000000)
		(1.42458101 -0.13364344 0.00000000)
		(1.44134078 -0.11664956 0.00000000)
		(1.45810056 -0.09893609 0.00000000)
		(1.47486034 -0.08061229 0.00000000)
		(1.49162011 -0.06179120 0.00000000)
		(1.50837989 -0.04258893 0.00000000)
		(1.52513966 -0.02312393 0.00000000)
		(1.54189944 -0.00351629 0.00000000)
		(1.55865922 0.01611305 0.00000000)
		(1.57541899 0.03564299 0.00000000)
		(1.59217877 0.05495306 0.00000000)
		(1.60893855 0.07392412 0.00000000)
		(1.62569832 0.09243915 0.00000000)
		(1.64245810 0.11038393 0.00000000)
		(1.65921788 0.12764777 0.00000000)
		(1.67597765 0.14412416 0.00000000)
		(1.69273743 0.15971147 0.00000000)
		(1.70949721 0.17431353 0.00000000)
		(1.72625698 0.18784026 0.00000000)
		(1.74301676 0.20020823 0.00000000)
		(1.75977654 0.21134114 0.00000000)
		(1.77653631 0.22117031 0.00000000)
		(1.79329609 0.22963510 0.00000000)
		(1.81005587 0.23668329 0.00000000)
		(1.82681564 0.24227141 0.00000000)
		(1.84357542 0.24636498 0.00000000)
		(1.86033520 0.24893875 0.00000000)
		(1.87709497 0.24997684 0.00000000)
		(1.89385475 0.24947285 0.00000000)
		(1.91061453 0.24742989 0.00000000)
		(1.92737430 0.24386056 0.00000000)
		(1.94413408 0.23878688 0.00000000)
		(1.96089385 0.23224015 0.00000000)
		(1.97765363 0.22426075 0.00000000)
		(1.99441341 0.21489791 0.00000000)
		(2.01117318 0.20420939 0.00000000)
		(2.02793296 0.19226112 0.00000000)
		(2.04469274 0.17912681 0.00000000)
		(2.06145251 0.16488749 0.00000000)
		(2.07821229 0.14963099 0.00000000)
		(2.09497207 0.13345144 0.00000000)
		(2.11173184 0.11644863 0.00000000)
		(2.12849162 0.09872747 0.00000000)
		(2.14525140 0.08039727 0.00000000)
		(2.16201117 0.06157110 0.00000000)
		(2.17877095 0.04236511 0.00000000)
		(2.19553073 0.02289777 0.00000000)
		(2.21229050 0.00328918 0.00000000)
		(2.22905028 -0.01633970 0.00000000)
		(2.24581006 -0.03586778 0.00000000)
		(2.26256983 -0.05517460 0.00000000)
		(2.27932961 -0.07414105 0.00000000)
		(2.29608939 -0.09265014 0.00000000)
		(2.31284916 -0.11058767 0.00000000)
		(2.32960894 -0.12784300 0.00000000)
		(2.34636872 -0.14430968 0.00000000)
		(2.36312849 -0.15988613 0.00000000)
		(2.37988827 -0.17447626 0.00000000)
		(2.39664804 -0.18799006 0.00000000)
		(2.41340782 -0.20034417 0.00000000)
		(2.43016760 -0.21146238 0.00000000)
		(2.44692737 -0.22127610 0.00000000)
		(2.46368715 -0.22972479 0.00000000)
		(2.48044693 -0.23675633 0.00000000)
		(2.49720670 -0.24232734 0.00000000)
		(2.51396648 -0.24640347 0.00000000)
		(2.53072626 -0.24895955 0.00000000)
		(2.54748603 -0.24997983 0.00000000)
		(2.56424581 -0.24945801 0.00000000)
		(2.58100559 -0.24739731 0.00000000)
		(2.59776536 -0.24381044 0.00000000)
		(2.61452514 -0.23871953 0.00000000)
		(2.63128492 -0.23215598 0.00000000)
		(2.64804469 -0.22416028 0.00000000)
		(2.66480447 -0.21478177 0.00000000)
		(2.68156425 -0.20407829 0.00000000)
		(2.69832402 -0.19211587 0.00000000)
		(2.71508380 -0.17896830 0.00000000)
		(2.73184358 -0.16471670 0.00000000)
		(2.74860335 -0.14944898 0.00000000)
		(2.76536313 -0.13325933 0.00000000)
		(2.78212291 -0.11624761 0.00000000)
		(2.79888268 -0.09851877 0.00000000)
		(2.81564246 -0.08018218 0.00000000)
		(2.83240223 -0.06135095 0.00000000)
		(2.84916201 -0.04214126 0.00000000)
		(2.86592179 -0.02267160 0.00000000)
		(2.88268156 -0.00306208 0.00000000)
		(2.89944134 0.01656633 0.00000000)
		(2.91620112 0.03609254 0.00000000)
		(2.93296089 0.05539610 0.00000000)
		(2.95166480 0.06919809 0.00000000)
		(2.97036872 0.08154723 0.00000000)
		(2.98907263 0.09244354 0.00000000)
		(3.00777654 0.10188700 0.00000000)
		(3.02648045 0.10987762 0.00000000)
		(3.04518436 0.11641541 0.00000000)
		(3.06388827 0.12150035 0.00000000)
		(3.08259218 0.12513245 0.00000000)
		(3.10129609 0.12731171 0.00000000)
		(3.12000000 0.12803813 0.00000000)
		(3.14000000 0.12803813 0.00000000)
		(3.16000000 0.12803813 0.00000000)
		(3.18000000 0.12803813 0.00000000)
		(3.20000000 0.12803813 0.00000000)
		(3.22000000 0.12803813 0.00000000)
		(3.24000000 0.12803813 0.00000000)
		(3.26000000 0.12803813 0.00000000)
		(3.28000000 0.12803813 0.00000000)
		(3.30000000 0.12803813 0.00000000)
		(3.32000000 0.12803813 0.00000000)
		(3.34000000 0.12803813 0.00000000)
		(3.36000000 0.12803813 0.00000000)
		(3.38000000 0.12803813 0.00000000)
		(3.40000000 0.12803813 0.00000000)
		(3.42000000 0.12803813 0.00000000)
		(3.44000000 0.12803813 0.00000000)
		(3.46000000 0.12803813 0.00000000)
		(3.48000000 0.12803813 0.00000000)
		(3.50000000 0.12803813 0.00000000)
		(3.52000000 0.12803813 0.00000000)
		(3.54000000 0.12803813 0.00000000)
		(3.56000000 0.12803813 0.00000000)
		(3.58000000 0.12803813 0.00000000)
		(3.60000000 0.12803813 0.00000000)
		(3.62000000 0.12803813 0.00000000)
		(3.64000000 0.12803813 0.00000000)
		(3.66000000 0.12803813 0.00000000)
		(3.68000000 0.12803813 0.00000000)
		(3.70000000 0.12803813 0.00000000)
		(3.72000000 0.12803813 0.00000000)
		(3.74000000 0.12803813 0.00000000)
		(3.76000000 0.12803813 0.00000000)
		(3.78000000 0.12803813 0.00000000)
		(3.80000000 0.12803813 0.00000000)
		(3.82000000 0.12803813 0.00000000)
		(3.84000000 0.12803813 0.00000000)
		(3.86000000 0.12803813 0.00000000)
		(3.88000000 0.12803813 0.00000000)
		(3.90000000 0.12803813 0.00000000)
		(3.92000000 0.12803813 0.00000000)
		(3.94000000 0.12803813 0.00000000)
		(3.96000000 0.12803813 0.00000000)
		(3.98000000 0.12803813 0.00000000)
		(4.00000000 0.12803813 0.00000000)
	)
	polyLine 4 5
	(
		(-1.00000000 -0.20460169 0.10000000)
		(-0.98000000 -0.20460169 0.10000000)
		(-0.96000000 -0.20460169 0.10000000)
		(-0.94000000 -0.20460169 0.10000000)
		(-0.92000000 -0.20460169 0.10000000)
		(-0.90000000 -0.20460169 0.10000000)
		(-0.88000000 -0.20460169 0.10000000)
		(-0.86000000 -0.20460169 0.10000000)
		(-0.84000000 -0.20460169 0.10000000)
		(-0.82000000 -0.20460169 0.10000000)
		(-0.80000000 -0.20460169 0.10000000)
		(-0.78000000 -0.20460169 0.10000000)
		(-0.76000000 -0.20460169 0.10000000)
		(-0.74000000 -0.20460169 0.10000000)
		(-0.72000000 -0.20460169 0.10000000)
		(-0.70000000 -0.20460169 0.10000000)
		(-0.68000000 -0.20460169 0.10000000)
		(-0.66000000 -0.20460169 0.10000000)
		(-0.64000000 -0.20460169 0.10000000)
		(-0.62000000 -0.20460169 0.10000000)
		(-0.60000000 -0.20460169 0.10000000)
		(-0.58000000 -0.20460169 0.10000000)
		(-0.56000000 -0.20460169 0.10000000)
		(-0.54000000 -0.20460169 0.10000000)
		(-0.52000000 -0.20460169 0.10000000)
		(-0.50000000 -0.20460169 0.10000000)
		(-0.48000000 -0.20460169 0.10000000)
		(-0.46000000 -0.20460169 0.10000000)
		(-0.44000000 -0.20460169 0.10000000)
		(-0.42000000 -0.20460169 0.10000000)
		(-0.40000000 -0.20460169 0.10000000)
		(-0.38000000 -0.20460169 0.10000000)
		(-0.36000000 -0.20460169 0.10000000)
		(-0.34000000 -0.20460169 0.10000000)
		(-0.32000000 -0.20460169 0.10000000)
		(-0.30000000 -0.20460169 0.10000000)
		(-0.28000000 -0.20460169 0.10000000)
		(-0.26000000 -0.20460169 0.10000000)
		(-0.24000000 -0.20460169 0.10000000)
		(-0.22000000 -0.20460169 0.10000000)
		(-0.20000000 -0.20460169 0.10000000)
		(-0.18000000 -0.20460169 0.10000000)
		(-0.16000000 -0.20460169 0.10000000)
		(-0.14000000 -0.20460169 0.10000000)
		(-0.12000000 -0.20460169 0.10000000)
		(-0.10000000 -0.20460169 0.10000000)
		(-0.08162011 -0.20389594 0.10000000)
		(-0.06324022 -0.20177871 0.10000000)
		(-0.04486034 -0.19824998 0.10000000)
		(-0.02648045 -0.19330976 0.10000000)
		(-0.00810056 -0.18695805 0.10000000)
		(0.01027933 -0.17919484 0.10000000)
		(0.02865922 -0.17002015 0.10000000)
		(0.04703911 -0.15943396 0.10000000)
		(0.06541899 -0.14743628 0.10000000)
		(0.08379888 -0.13402711 0.10000000)
		(0.10055866 -0.11705114 0.10000000)
		(0.11731844 -0.09935309 0.10000000)
		(0.13407821 -0.08104214 0.10000000)
		(0.15083799 -0.06223125 0.10000000)
		(0.16759777 -0.04303647 0.10000000)
		(0.18435754 -0.02357619 0.10000000)
		(0.20111732 -0.00397048 0.10000000)
		(0.21787709 0.01565973 0.10000000)
		(0.23463687 0.03519333 0.10000000)
		(0.25139665 0.05450983 0.10000000)
		(0.26815642 0.07349006 0.10000000)
		(0.28491620 0.09201694 0.10000000)
		(0.30167598 0.10997618 0.10000000)
		(0.31843575 0.12725699 0.10000000)
		(0.33519553 0.14375276 0.10000000)
		(0.35195531 0.15936174 0.10000000)
		(0.36871508 0.17398762 0.10000000)
		(0.38547486 0.18754020 0.10000000)
		(0.40223464 0.19993586 0.10000000)
		(0.41899441 0.21109814 0.10000000)
		(0.43575419 0.22095817 0.10000000)
		(0.45251397 0.22945514 0.10000000)
		(0.46927374 0.23653662 0.10000000)
		(0.48603352 0.24215893 0.10000000)
		(0.50279330 0.24628739 0.10000000)
		(0.51955307 0.24889653 0.10000000)
		(0.53631285 0.24997025 0.10000000)
		(0.55307263 0.24950192 0.10000000)
		(0.56983240 0.24749445 0.10000000)
		(0.58659218 0.24396021 0.10000000)
		(0.60335196 0.23892100 0.10000000)
		(0.62011173 0.23240792 0.10000000)
		(0.63687151 0.22446113 0.10000000)
		(0.65363128 0.21512967 0.10000000)
		(0.67039106 0.20447109 0.10000000)
		(0.68715084 0.19255115 0.10000000)
		(0.70391061 0.17944339 0.10000000)
		(0.72067039 0.16522866 0.10000000)
		(0.73743017 0.14999464 0.10000000)
		(0.75418994 0.13383533 0.10000000)
		(0.77094972 0.11685040 0.10000000)
		(0.78770950 0.09914463 0.10000000)
		(0.80446927 0.08082725 0.10000000)
		(0.82122905 0.06201125 0.10000000)
		(0.83798883 0.04281272 0.10000000)
		(0.85474860 0.02335007 0.10000000)
		(0.87150838 0.00374338 0.10000000)
		(0.88826816 -0.01588640 0.10000000)
		(0.90502793 -0.03541818 0.10000000)
		(0.92178771 -0.05473147 0.10000000)
		(0.93854749 -0.07370712 0.10000000)
		(0.95530726 -0.09222808 0.10000000)
		(0.97206704 -0.11018010 0.10000000)
		(0.98882682 -0.12745243 0.10000000)
		(1.00558659 -0.14393852 0.10000000)
		(1.02234637 -0.15953667 0.10000000)
		(1.03910615 -0.17415065 0.10000000)
		(1.05586592 -0.18769031 0.10000000)
		(1.07262570 -0.20007213 0.10000000)
		(1.08938547 -0.21121973 0.10000000)
		(1.10614525 -0.22106433 0.10000000)
		(1.12290503 -0.22954521 0.10000000)
		(1.13966480 -0.23661005 0.10000000)
		(1.15642458 -0.24221527 0.10000000)
		(1.17318436 -0.24632629 0.10000000)
		(1.18994413 -0.24891774 0.10000000)
		(1.20670391 -0.24997365 0.10000000)
		(1.22346369 -0.24948749 0.10000000)
		(1.24022346 -0.24746227 0.10000000)
		(1.25698324 -0.24391049 0.10000000)
		(1.27374302 -0.23885404 0.10000000)
		(1.29050279 -0.23232413 0.10000000)
		(1.30726257 -0.22436103 0.10000000)
		(1.32402235 -0.21501388 0.10000000)
		(1.34078212 -0.20434033 0.10000000)
		(1.35754190 -0.19240622 0.10000000)
		(1.37430168 -0.17928517 0.10000000)
		(1.39106145 -0.16505814 0.10000000)
		(1.40782123 -0.14981288 0.10000000)
		(1.42458101 -0.13364344 0.10000000)
		(1.44134078 -0.11664956 0.10000000)
		(1.45810056 -0.09893609 0.10000000)
		(1.47486034 -0.08061229 0.10000000)
		(1.49162011 -0.06179120 0.10000000)
		(1.50837989 -0.04258893 0.10000000)
		(1.52513966 -0.02312393 0.10000000)
		(1.54189944 -0.00351629 0.10000000)
		(1.55865922 0.01611305 0.10000000)
		(1.57541899 0.03564299 0.10000000)
		(1.59217877 0.05495306 0.10000000)
		(1.60893855 0.07392412 0.10000000)
		(1.62569832 0.09243915 0.10000000)
		(1.64245810 0.11038393 0.10000000)
		(1.65921788 0.12764777 0.10000000)
		(1.67597765 0.14412416 0.10000000)
		(1.69273743 0.15971147 0.10000000)
		(1.70949721 0.17431353 0.10000000)
		(1.72625698 0.18784026 0.10000000)
		(1.74301676 0.20020823 0.10000000)
		(1.75977654 0.21134114 0.10000000)
		(1.77653631 0.22117031 0.10000000)
		(1.79329609 0.22963510 0.10000000)
		(1.81005587 0.23668329 0.10000000)
		(1.82681564 0.24227141 0.10000000)
		(1.84357542 0.24636498 0.10000000)
		(1.86033520 0.24893875 0.10000000)
		(1.87709497 0.24997684 0.10000000)
		(1.89385475 0.24947285 0.10000000)
		(1.91061453 0.24742989 0.10000000)
		(1.92737430 0.24386056 0.10000000)
		(1.94413408 0.23878688 0.10000000)
		(1.96089385 0.23224015 0.10000000)
		(1.97765363 0.22426075 0.10000000)
		(1.99441341 0.21489791 0.10000000)
		(2.01117318 0.20420939 0.10000000)
		(2.02793296 0.19226112 0.10000000)
		(2.04469274 0.17912681 0.10000000)
		(2.06145251 0.16488749 0.10000000)
		(2.07821229 0.14963099 0.10000000)
		(2.09497207 0.13345144 0.10000000)
		(2.11173184 0.11644863 0.10000000)
		(2.12849162 0.09872747 0.10000000)
		(2.14525140 0.08039727 0.10000000)
		(2.16201117 0.06157110 0.10000000)
		(2.17877095 0.04236511 0.10000000)
		(2.19553073 0.02289777 0.10000000)
		(2.21229050 0.00328918 0.10000000)
		(2.22905028 -0.01633970 0.10000000)
		(2.24581006 -0.03586778 0.10000000)
		(2.26256983 -0.05517460 0.10000000)
		(2.27932961 -0.07414105 0.10000000)
		(2.29608939 -0.09265014 0.10000000)
		(2.31284916 -0.11058767 0.10000000)
		(2.32960894 -0.12784300 0.10000000)
		(2.34636872 -0.14430968 0.10000000)
		(2.36312849 -0.15988613 0.10000000)
		(2.37988827 -0.17447626 0.10000000)
		(2.39664804 -0.18799006 0.10000000)
		(2.41340782 -0.20034417 0.10000000)
		(2.43016760 -0.21146238 0.10000000)
		(2.44692737 -0.22127610 0.10000000)
		(2.46368715 -0.22972479 0.10000000)
		(2.48044693 -0.23675633 0.10000000)
		(2.49720670 -0.24232734 0.10000000)
		(2.51396648 -0.24640347 0.10000000)
		(2.53072626 -0.24895955 0.10000000)
		(2.54748603 -0.24997983 0.10000000)
		(2.56424581 -0.24945801 0.10000000)
		(2.58100559 -0.24739731 0.10000000)
		(2.59776536 -0.24381044 0.10000000)
		(2.61452514 -0.23871953 0.10000000)
		(2.63128492 -0.23215598 0.10000000)
		(2.64804469 -0.22416028 0.10000000)
		(2.66480447 -0.21478177 0.10000000)
		(2.68156425 -0.20407829 0.10000000)
		(2.69832402 -0.19211587 0.10000000)
		(2.71508380 -0.17896830 0.10000000)
		(2.73184358 -0.16471670 0.10000000)
		(2.74860335 -0.14944898 0.10000000)
		(2.76536313 -0.13325933 0.10000000)
		(2.78212291 -0.11624761 0.10000000)
		(2.79888268 -0.09851877 0.10000000)
		(2.81564246 -0.08018218 0.10000000)
		(2.83240223 -0.06135095 0.10000000)
		(2.84916201 -0.04214126 0.10000000)
		(2.86592179 -0.02267160 0.10000000)
		(2.88268156 -0.00306208 0.10000000)
		(2.89944134 0.01656633 0.10000000)
		(2.91620112 0.03609254 0.10000000)
		(2.93296089 0.05539610 0.10000000)
		(2.95166480 0.06919809 0.10000000)
		(2.97036872 0.08154723 0.10000000)
		(2.98907263 0.09244354 0.10000000)
		(3.00777654 0.10188700 0.10000000)
		(3.02648045 0.10987762 0.10000000)
		(3.04518436 0.11641541 0.10000000)
		(3.06388827 0.12150035 0.10000000)
		(3.08259218 0.12513245 0.10000000)
		(3.10129609 0.12731171 0.10000000)
		(3.12000000 0.12803813 0.10000000)
		(3.14000000 0.12803813 0.10000000)
		(3.16000000 0.12803813 0.10000000)
		(3.18000000 0.12803813 0.10000000)
		(3.20000000 0.12803813 0.10000000)
		(3.22000000 0.12803813 0.10000000)
		(3.24000000 0.12803813 0.10000000)
		(3.26000000 0.12803813 0.10000000)
		(3.28000000 0.12803813 0.10000000)
		(3.30000000 0.12803813 0.10000000)
		(3.32000000 0.12803813 0.10000000)
		(3.34000000 0.12803813 0.10000000)
		(3.36000000 0.12803813 0.10000000)
		(3.38000000 0.12803813 0.10000000)
		(3.40000000 0.12803813 0.10000000)
		(3.42000000 0.12803813 0.10000000)
		(3.44000000 0.12803813 0.10000000)
		(3.46000000 0.12803813 0.10000000)
		(3.48000000 0.12803813 0.10000000)
		(3.50000000 0.12803813 0.10000000)
		(3.52000000 0.12803813 0.10000000)
		(3.54000000 0.12803813 0.10000000)
		(3.56000000 0.12803813 0.10000000)
		(3.58000000 0.12803813 0.10000000)
		(3.60000000 0.12803813 0.10000000)
		(3.62000000 0.12803813 0.10000000)
		(3.64000000 0.12803813 0.10000000)
		(3.66000000 0.12803813 0.10000000)
		(3.68000000 0.12803813 0.10000000)
		(3.70000000 0.12803813 0.10000000)
		(3.72000000 0.12803813 0.10000000)
		(3.74000000 0.12803813 0.10000000)
		(3.76000000 0.12803813 0.10000000)
		(3.78000000 0.12803813 0.10000000)
		(3.80000000 0.12803813 0.10000000)
		(3.82000000 0.12803813 0.10000000)
		(3.84000000 0.12803813 0.10000000)
		(3.86000000 0.12803813 0.10000000)
		(3.88000000 0.12803813 0.10000000)
		(3.90000000 0.12803813 0.10000000)
		(3.92000000 0.12803813 0.10000000)
		(3.94000000 0.12803813 0.10000000)
		(3.96000000 0.12803813 0.10000000)
		(3.98000000 0.12803813 0.10000000)
		(4.00000000 0.12803813 0.10000000)
	)
	polyLine 3 2
	(
		(-1.00000000 0.29539831 0.00000000)
		(-0.98000000 0.29727114 0.00000000)
		(-0.96000000 0.29914397 0.00000000)
		(-0.94000000 0.30101680 0.00000000)
		(-0.92000000 0.30288963 0.00000000)
		(-0.90000000 0.30476246 0.00000000)
		(-0.88000000 0.30663529 0.00000000)
		(-0.86000000 0.30850812 0.00000000)
		(-0.84000000 0.31038095 0.00000000)
		(-0.82000000 0.31225378 0.00000000)
		(-0.80000000 0.31412661 0.00000000)
		(-0.78000000 0.31599944 0.00000000)
		(-0.76000000 0.31787227 0.00000000)
		(-0.74000000 0.31974510 0.00000000)
		(-0.72000000 0.32161793 0.00000000)
		(-0.70000000 0.32349076 0.00000000)
		(-0.68000000 0.32536359 0.00000000)
		(-0.66000000 0.32723642 0.00000000)
		(-0.64000000 0.32910924 0.00000000)
		(-0.62000000 0.33098207 0.00000000)
		(-0.60000000 0.33285490 0.00000000)
		(-0.58000000 0.33472773 0.00000000)
		(-0.56000000 0.33660056 0.00000000)
		(-0.54000000 0.33847339 0.00000000)
		(-0.52000000 0.34034622 0.00000000)
		(-0.50000000 0.34221905 0.00000000)
		(-0.48000000 0.34409188 0.00000000)
		(-0.46000000 0.34596471 0.00000000)
		(-0.44000000 0.34783754 0.00000000)
		(-0.42000000 0.34971037 0.00000000)
		(-0.40000000 0.35158320 0.00000000)
		(-0.38000000 0.35345603 0.00000000)
		(-0.36000000 0.35532886 0.00000000)
		(-0.34000000 0.35720169 0.00000000)
		(-0.32000000 0.35907452 0.00000000)
		(-0.30000000 0.36094735 0.00000000)
		(-0.28000000 0.36282018 0.00000000)
		(-0.26000000 0.36469301 0.00000000)
		(-0.24000000 0.36656584 0.00000000)
		(-0.22000000 0.36843867 0.00000000)
		(-0.20000000 0.37031150 0.00000000)
		(-0.18000000 0.37218433 0.00000000)
		(-0.16000000 0.37405716 0.00000000)
		(-0.14000000 0.37592999 0.00000000)
		(-0.12000000 0.37780282 0.00000000)
		(-0.10000000 0.37967565 0.00000000)
		(-0.08162011 0.38072391 0.00000000)
		(-0.06324022 0.38257059 0.00000000)
		(-0.04486034 0.38521569 0.00000000)
		(-0.02648045 0.38865921 0.00000000)
		(-0.00810056 0.39290116 0.00000000)
		(0.01027933 0.39794152 0.00000000)
		(0.02865922 0.40378031 0.00000000)
		(0.04703911 0.41041751 0.00000000)
		(0.06541899 0.41785314 0.00000000)
		(0.08379888 0.42608719 0.00000000)
		(0.10055866 0.43544904 0.00000000)
		(0.11731844 0.44520910 0.00000000)
		(0.13407821 0.45530716 0.00000000)
		(0.15083799 0.46568092 0.00000000)
		(0.16759777 0.47626640 0.00000000)
		(0.18435754 0.48699828 0.00000000)
		(0.20111732 0.49781037 0.00000000)
		(0.21787709 0.50863597 0.00000000)
		(0.23463687 0.51940830 0.00000000)
		(0.25139665 0.53006089 0.00000000)
		(0.26815642 0.54052805 0.00000000)
		(0.28491620 0.55074519 0.00000000)
		(0.30167598 0.56064929 0.00000000)
		(0.31843575 0.57017924 0.00000000)
		(0.33519553 0.57927628 0.00000000)
		(0.35195531 0.58788426 0.00000000)
		(0.36871508 0.59595009 0.00000000)
		(0.38547486 0.60342402 0.00000000)
		(0.40223464 0.61025994 0.00000000)
		(0.41899441 0.61641567 0.00000000)
		(0.43575419 0.62185325 0.00000000)
		(0.45251397 0.62653913 0.00000000)
		(0.46927374 0.63044440 0.00000000)
		(0.48603352 0.63354497 0.00000000)
		(0.50279330 0.63582172 0.00000000)
		(0.51955307 0.63726060 0.00000000)
		(0.53631285 0.63785273 0.00000000)
		(0.55307263 0.63759446 0.00000000)
		(0.56983240 0.63648739 0.00000000)
		(0.58659218 0.63453833 0.00000000)
		(0.60335196 0.63175933 0.00000000)
		(0.62011173 0.62816752 0.00000000)
		(0.63687151 0.62378505 0.00000000)
		(0.65363128 0.61863897 0.00000000)
		(0.67039106 0.61276101 0.00000000)
		(0.68715084 0.60618745 0.00000000)
		(0.70391061 0.59895882 0.00000000)
		(0.72067039 0.59111973 0.00000000)
		(0.73743017 0.58271853 0.00000000)
		(0.75418994 0.57380705 0.00000000)
		(0.77094972 0.56444025 0.00000000)
		(0.78770950 0.55467594 0.00000000)
		(0.80446927 0.54457433 0.00000000)
		(0.82122905 0.53419775 0.00000000)
		(0.83798883 0.52361021 0.00000000)
		(0.85474860 0.51287702 0.00000000)
		(0.87150838 0.50206439 0.00000000)
		(0.88826816 0.49123902 0.00000000)
		(0.90502793 0.48046771 0.00000000)
		(0.92178771 0.46981688 0.00000000)
		(0.93854749 0.45935225 0.00000000)
		(0.95530726 0.44913837 0.00000000)
		(0.97206704 0.43923826 0.00000000)
		(0.98882682 0.42971297 0.00000000)
		(1.00558659 0.42062128 0.00000000)
		(1.02234637 0.41201927 0.00000000)
		(1.03910615 0.40396000 0.00000000)
		(1.05586592 0.39649320 0.00000000)
		(1.07262570 0.38966491 0.00000000)
		(1.08938547 0.38351727 0.00000000)
		(1.10614525 0.37808821 0.00000000)
		(1.12290503 0.37341120 0.00000000)
		(1.13966480 0.36951511 0.00000000)
		(1.15642458 0.36642396 0.00000000)
		(1.17318436 0.36415683 0.00000000)
		(1.18994413 0.36272770 0.00000000)
		(1.20670391 0.36214540 0.00000000)
		(1.22346369 0.36241350 0.00000000)
		(1.24022346 0.36353036 0.00000000)
		(1.25698324 0.36548909 0.00000000)
		(1.27374302 0.36827760 0.00000000)
		(1.29050279 0.37187869 0.00000000)
		(1.30726257 0.37627015 0.00000000)
		(1.32402235 0.38142489 0.00000000)
		(1.34078212 0.38731110 0.00000000)
		(1.35754190 0.39389248 0.00000000)
		(1.37430168 0.40112843 0.00000000)
		(1.39106145 0.40897431 0.00000000)
		(1.40782123 0.41738171 0.00000000)
		(1.42458101 0.42629878 0.00000000)
		(1.44134078 0.43567050 0.00000000)
		(1.45810056 0.44543907 0.00000000)
		(1.47486034 0.45554421 0.00000000)
		(1.49162011 0.46592360 0.00000000)
		(1.50837989 0.47651320 0.00000000)
		(1.52513966 0.48724769 0.00000000)
		(1.54189944 0.49806085 0.00000000)
		(1.55865922 0.50888597 0.00000000)
		(1.57541899 0.51965628 0.00000000)
		(1.59217877 0.53030532 0.00000000)
		(1.60893855 0.54076742 0.00000000)
		(1.62569832 0.55097802 0.00000000)
		(1.64245810 0.56087415 0.00000000)
		(1.65921788 0.57039475 0.00000000)
		(1.67597765 0.57948109 0.00000000)
		(1.69273743 0.58807713 0.00000000)
		(1.70949721 0.59612982 0.00000000)
		(1.72625698 0.60358950 0.00000000)
		(1.74301676 0.61041015 0.00000000)
		(1.75977654 0.61654968 0.00000000)
		(1.77653631 0.62197024 0.00000000)
		(1.79329609 0.62663837 0.00000000)
		(1.81005587 0.63052528 0.00000000)
		(1.82681564 0.63360700 0.00000000)
		(1.84357542 0.63586451 0.00000000)
		(1.86033520 0.63728388 0.00000000)
		(1.87709497 0.63785637 0.00000000)
		(1.89385475 0.63757843 0.00000000)
		(1.91061453 0.63645178 0.00000000)
		(1.92737430 0.63448338 0.00000000)
		(1.94413408 0.63168537 0.00000000)
		(1.96089385 0.62807500 0.00000000)
		(1.97765363 0.62367455 0.00000000)
		(1.99441341 0.61851116 0.00000000)
		(2.01117318 0.61261669 0.00000000)
		(2.02793296 0.60602750 0.00000000)
		(2.04469274 0.59878424 0.00000000)
		(2.06145251 0.59093158 0.00000000)
		(2.07821229 0.58251798 0.00000000)
		(2.09497207 0.57359534 0.00000000)
		(2.11173184 0.56421869 0.00000000)
		(2.12849162 0.55444588 0.00000000)
		(2.14525140 0.54433721 0.00000000)
		(2.16201117 0.53395502 0.00000000)
		(2.17877095 0.52336337 0.00000000)
		(2.19553073 0.51262759 0.00000000)
		(2.21229050 0.50181391 0.00000000)
		(2.22905028 0.49098904 0.00000000)
		(2.24581006 0.48021976 0.00000000)
		(2.26256983 0.46957250 0.00000000)
		(2.27932961 0.45911295 0.00000000)
		(2.29608939 0.44890562 0.00000000)
		(2.31284916 0.43901349 0.00000000)
		(2.32960894 0.42949758 0.00000000)
		(2.34636872 0.42041659 0.00000000)
		(2.36312849 0.41182655 0.00000000)
		(2.37988827 0.40378043 0.00000000)
		(2.39664804 0.39632789 0.00000000)
		(2.41340782 0.38951489 0.00000000)
		(2.43016760 0.38338346 0.00000000)
		(2.44692737 0.37797142 0.00000000)
		(2.46368715 0.37331217 0.00000000)
		(2.48044693 0.36943444 0.00000000)
		(2.49720670 0.36636215 0.00000000)
		(2.51396648 0.36411427 0.00000000)