/*--------------------------------*- C++ -*----------------------------------*\\
/*--------------------------------*- C++ -*----------------------------------*\\
| =========                 |                                                 |
| \\\\      /  F ield         | OpenFOAM: The Open Source CFD Toolbox           |
|  \\\\    /   O peration     | Version:  v2012                                 |
|   \\\\  /    A nd           | Website:  www.openfoam.com                      |
|    \\\\/     M anipulation  |                                                 |
\\*---------------------------------------------------------------------------*/
FoamFile
{
    version     2.0;
    format      ascii;
    class       dictionary;
    object      blockMeshDict;
}
// * * * * * * * * * * * * * * * * * * * * * * * * * * * * * * * * * * * * * //

scale   0.01;

xmin -1;
xmax 5;
ymin 0;
ymax 0.5;
zmin 0;
zmax 0.1;

vertices
(
    (-1.00000000 -0.24990759 0.00000000)
    (4.00000000 -0.09176654 0.00000000)
    (4.00000000 0.40823346 0.00000000)
    (-1.00000000 0.25009241 0.00000000)
    (-1.00000000 -0.24990759 0.10000000)
    (4.00000000 -0.09176654 0.10000000)
    (4.00000000 0.40823346 0.10000000)
    (-1.00000000 0.25009241 0.10000000)
);

blocks
(
    hex (0 1 2 3 4 5 6 7) (200 20 1) simpleGrading (1 1 1)
);

edges
(
	polyLine 0 1
	(
		(-1.00000000 -0.24990759 0.00000000)
		(-0.98000000 -0.24990759 0.00000000)
		(-0.96000000 -0.24990759 0.00000000)
		(-0.94000000 -0.24990759 0.00000000)
		(-0.92000000 -0.24990759 0.00000000)
		(-0.90000000 -0.24990759 0.00000000)
		(-0.88000000 -0.24990759 0.00000000)
		(-0.86000000 -0.24990759 0.00000000)
		(-0.84000000 -0.24990759 0.00000000)
		(-0.82000000 -0.24990759 0.00000000)
		(-0.80000000 -0.24990759 0.00000000)
		(-0.78000000 -0.24990759 0.00000000)
		(-0.76000000 -0.24990759 0.00000000)
		(-0.74000000 -0.24990759 0.00000000)
		(-0.72000000 -0.24990759 0.00000000)
		(-0.70000000 -0.24990759 0.00000000)
		(-0.68000000 -0.24990759 0.00000000)
		(-0.66000000 -0.24990759 0.00000000)
		(-0.64000000 -0.24990759 0.00000000)
		(-0.62000000 -0.24990759 0.00000000)
		(-0.60000000 -0.24990759 0.00000000)
		(-0.58000000 -0.24990759 0.00000000)
		(-0.56000000 -0.24990759 0.00000000)
		(-0.54000000 -0.24990759 0.00000000)
		(-0.52000000 -0.24990759 0.00000000)
		(-0.50000000 -0.24990759 0.00000000)
		(-0.48000000 -0.24990759 0.00000000)
		(-0.46000000 -0.24990759 0.00000000)
		(-0.44000000 -0.24990759 0.00000000)
		(-0.42000000 -0.24990759 0.00000000)
		(-0.40000000 -0.24990759 0.00000000)
		(-0.38000000 -0.24990759 0.00000000)
		(-0.36000000 -0.24990759 0.00000000)
		(-0.34000000 -0.24990759 0.00000000)
		(-0.32000000 -0.24990759 0.00000000)
		(-0.30000000 -0.24990759 0.00000000)
		(-0.28000000 -0.24990759 0.00000000)
		(-0.26000000 -0.24990759 0.00000000)
		(-0.24000000 -0.24990759 0.00000000)
		(-0.22000000 -0.24990759 0.00000000)
		(-0.20000000 -0.24990759 0.00000000)
		(-0.18000000 -0.24990759 0.00000000)
		(-0.16000000 -0.24990759 0.00000000)
		(-0.14000000 -0.24990759 0.00000000)
		(-0.12000000 -0.24990759 0.00000000)
		(-0.10000000 -0.24990759 0.00000000)
		(-0.08162011 -0.24957859 0.00000000)
		(-0.06324022 -0.24859158 0.00000000)
		(-0.04486034 -0.24694657 0.00000000)
		(-0.02648045 -0.24464356 0.00000000)
		(-0.00810056 -0.24168254 0.00000000)
		(0.01027933 -0.23806352 0.00000000)
		(0.02865922 -0.23378649 0.00000000)
		(0.04703911 -0.22885146 0.00000000)
		(0.06541899 -0.22325843 0.00000000)
		(0.08379888 -0.21700739 0.00000000)
		(0.10055866 -0.20375195 0.00000000)
		(0.11731844 -0.18852217 0.00000000)
		(0.13407821 -0.17146563 0.00000000)
		(0.15083799 -0.15274759 0.00000000)
		(0.16759777 -0.13254944 0.00000000)
		(0.18435754 -0.11106690 0.00000000)
		(0.20111732 -0.08850812 0.00000000)
		(0.21787709 -0.06509171 0.00000000)
		(0.23463687 -0.04104457 0.00000000)
		(0.25139665 -0.01659970 0.00000000)
		(0.26815642 0.00800601 0.00000000)
		(0.28491620 0.03253415 0.00000000)
		(0.30167598 0.05674703 0.00000000)
		(0.31843575 0.08041004 0.00000000)
		(0.33519553 0.10329388 0.00000000)
		(0.35195531 0.12517681 0.00000000)
		(0.36871508 0.14584679 0.00000000)
		(0.38547486 0.16510352 0.00000000)
		(0.40223464 0.18276041 0.00000000)
		(0.41899441 0.19864636 0.00000000)
		(0.43575419 0.21260745 0.00000000)
		(0.45251397 0.22450838 0.00000000)
		(0.46927374 0.23423385 0.00000000)
		(0.48603352 0.24168960 0.00000000)
		(0.50279330 0.24680341 0.00000000)
		(0.51955307 0.24952570 0.00000000)
		(0.53631285 0.24983011 0.00000000)
		(0.55307263 0.24771368 0.00000000)
		(0.56983240 0.24319692 0.00000000)
		(0.58659218 0.23632361 0.00000000)
		(0.60335196 0.22716033 0.00000000)
		(0.62011173 0.21579589 0.00000000)
		(0.63687151 0.20234040 0.00000000)
		(0.65363128 0.18692425 0.00000000)
		(0.67039106 0.16969681 0.00000000)
		(0.68715084 0.15082502 0.00000000)
		(0.70391061 0.13049175 0.00000000)
		(0.72067039 0.10889403 0.00000000)
		(0.73743017 0.08624113 0.00000000)
		(0.75418994 0.06275256 0.00000000)
		(0.77094972 0.03865592 0.00000000)
		(0.78770950 0.01418471 0.00000000)
		(0.80446927 -0.01042395 0.00000000)
		(0.82122905 -0.03493160 0.00000000)
		(0.83798883 -0.05910077 0.00000000)
		(0.85474860 -0.08269726 0.00000000)
		(0.87150838 -0.10549241 0.00000000)
		(0.88826816 -0.12726535 0.00000000)
		(0.90502793 -0.14780510 0.00000000)
		(0.92178771 -0.16691263 0.00000000)
		(0.93854749 -0.18440279 0.00000000)
		(0.95530726 -0.20010610 0.00000000)
		(0.97206704 -0.21387039 0.00000000)
		(0.98882682 -0.22556230 0.00000000)
		(1.00558659 -0.23506852 0.00000000)
		(1.02234637 -0.24229694 0.00000000)
		(1.03910615 -0.24717753 0.00000000)
		(1.05586592 -0.24966298 0.00000000)
		(1.07262570 -0.24972922 0.00000000)
		(1.08938547 -0.24737560 0.00000000)
		(1.10614525 -0.24262493 0.00000000)
		(1.12290503 -0.23552323 0.00000000)
		(1.13966480 -0.22613934 0.00000000)
		(1.15642458 -0.21456417 0.00000000)
		(1.17318436 -0.20090989 0.00000000)
		(1.18994413 -0.18530881 0.00000000)
		(1.20670391 -0.16791210 0.00000000)
		(1.22346369 -0.14888833 0.00000000)
		(1.24022346 -0.12842185 0.00000000)
		(1.25698324 -0.10671096 0.00000000)
		(1.27374302 -0.08396606 0.00000000)
		(1.29050279 -0.06040753 0.00000000)
		(1.30726257 -0.03626366 0.00000000)
		(1.32402235 -0.01176839 0.00000000)
		(1.34078212 0.01284091 0.00000000)
		(1.35754190 0.03732579 0.00000000)
		(1.37430168 0.06144898 0.00000000)
		(1.39106145 0.08497673 0.00000000)
		(1.40782123 0.10768106 0.00000000)
		(1.42458101 0.12934198 0.00000000)
		(1.44134078 0.14974958 0.00000000)
		(1.45810056 0.16870611 0.00000000)
		(1.47486034 0.18602790 0.00000000)
		(1.49162011 0.20154709 0.00000000)
		(1.50837989 0.21511330 0.00000000)
		(1.52513966 0.22659508 0.00000000)
		(1.54189944 0.23588117 0.00000000)
		(1.55865922 0.24288159 0.00000000)
		(1.57541899 0.24752850 0.00000000)
		(1.59217877 0.24977688 0.00000000)
		(1.60893855 0.24960494 0.00000000)
		(1.62569832 0.24701435 0.00000000)
		(1.64245810 0.24203020 0.00000000)
		(1.65921788 0.23470080 0.00000000)
		(1.67597765 0.22509717 0.00000000)
		(1.69273743 0.21331236 0.00000000)
		(1.70949721 0.19946057 0.00000000)
		(1.72625698 0.18367602 0.00000000)
		(1.74301676 0.16611166 0.00000000)
		(1.75977654 0.14693769 0.00000000)
		(1.77653631 0.12633991 0.00000000)
		(1.79329609 0.10451790 0.00000000)
		(1.81005587 0.08168312 0.00000000)
		(1.82681564 0.05805684 0.00000000)
		(1.84357542 0.03386799 0.00000000)
		(1.86033520 0.00935097 0.00000000)
		(1.87709497 -0.01525667 0.00000000)
		(1.89385475 -0.03971647 0.00000000)
		(1.91061453 -0.06379142 0.00000000)
		(1.92737430 -0.08724824 0.00000000)
		(1.94413408 -0.10985963 0.00000000)
		(1.96089385 -0.13140649 0.00000000)
		(1.97765363 -0.15168002 0.00000000)
		(1.99441341 -0.17048379 0.00000000)
		(2.01117318 -0.18763558 0.00000000)
		(2.02793296 -0.20296920 0.00000000)
		(2.04469274 -0.21633606 0.00000000)
		(2.06145251 -0.22760664 0.00000000)
		(2.07821229 -0.23667173 0.00000000)
		(2.09497207 -0.24344348 0.00000000)
		(2.11173184 -0.24785629 0.00000000)
		(2.12849162 -0.24986738 0.00000000)
		(2.14525140 -0.24945728 0.00000000)
		(2.16201117 -0.24662996 0.00000000)
		(2.17877095 -0.24141281 0.00000000)
		(2.19553073 -0.23385638 0.00000000)
		(2.21229050 -0.22403391 0.00000000)
		(2.22905028 -0.21204056 0.00000000)
		(2.24581006 -0.19799256 0.00000000)
		(2.26256983 -0.18202602 0.00000000)
		(2.27932961 -0.16429566 0.00000000)
		(2.29608939 -0.14497329 0.00000000)
		(2.31284916 -0.12424614 0.00000000)
		(2.32960894 -0.10231505 0.00000000)
		(2.34636872 -0.07939254 0.00000000)
		(2.36312849 -0.05570071 0.00000000)
		(2.37988827 -0.03146916 0.00000000)
		(2.39664804 -0.00693267 0.00000000)
		(2.41340782 0.01767100 0.00000000)
		(2.43016760 0.04210344 0.00000000)
		(2.44692737 0.06612790 0.00000000)
		(2.46368715 0.08951158 0.00000000)
		(2.48044693 0.11202790 0.00000000)
		(2.49720670 0.13345868 0.00000000)
		(2.51396648 0.15359626 0.00000000)
		(2.53072626 0.17224550 0.00000000)
		(2.54748603 0.18922569 0.00000000)
		(2.56424581 0.20437230 0.00000000)
		(2.58100559 0.21753855 0.00000000)
		(2.59776536 0.22859688 0.00000000)
		(2.61452514 0.23744011 0.00000000)
		(2.63128492 0.24398257 0.00000000)
		(2.64804469 0.24816086 0.00000000)
		(2.66480447 0.24993448 0.00000000)
		(2.68156425 0.24928626 0.00000000)
		(2.69832402 0.24622247 0.00000000)
		(2.71508380 0.24077280 0.00000000)
		(2.73184358 0.23299006 0.00000000)
		(2.74860335 0.22294967 0.00000000)
		(2.76536313 0.21074890 0.00000000)
		(2.78212291 0.19650600 0.00000000)
		(2.79888268 0.18035897 0.00000000)
		(2.81564246 0.16246427 0.00000000)
		(2.83240223 0.14299531 0.00000000)
		(2.84916201 0.12214073 0.00000000)
		(2.86592179 0.10010261 0.00000000)
		(2.88268156 0.07709451 0.00000000)
		(2.89944134 0.05333937 0.00000000)
		(2.91620112 0.02906738 0.00000000)
		(2.93296089 0.00451372 0.00000000)
		(2.95166480 -0.01377953 0.00000000)
		(2.97036872 -0.03014717 0.00000000)
		(2.98907263 -0.04458921 0.00000000)
		(3.00777654 -0.05710564 0.00000000)
		(3.02648045 -0.06769647 0.00000000)
		(3.04518436 -0.07636169 0.00000000)
		(3.06388827 -0.08310131 0.00000000)
		(3.08259218 -0.08791533 0.00000000)
		(3.10129609 -0.09080373 0.00000000)
		(3.12000000 -0.09176654 0.00000000)
		(3.14000000 -0.09176654 0.00000000)
		(3.16000000 -0.09176654 0.00000000)
		(3.18000000 -0.09176654 0.00000000)
		(3.20000000 -0.09176654 0.00000000)
		(3.22000000 -0.09176654 0.00000000)
		(3.24000000 -0.09176654 0.00000000)
		(3.26000000 -0.09176654 0.00000000)
		(3.28000000 -0.09176654 0.00000000)
		(3.30000000 -0.09176654 0.00000000)
		(3.32000000 -0.09176654 0.00000000)
		(3.34000000 -0.09176654 0.00000000)
		(3.36000000 -0.09176654 0.00000000)
		(3.38000000 -0.09176654 0.00000000)
		(3.40000000 -0.09176654 0.00000000)
		(3.42000000 -0.09176654 0.00000000)
		(3.44000000 -0.09176654 0.00000000)
		(3.46000000 -0.09176654 0.00000000)
		(3.48000000 -0.09176654 0.00000000)
		(3.50000000 -0.09176654 0.00000000)
		(3.52000000 -0.09176654 0.00000000)
		(3.54000000 -0.09176654 0.00000000)
		(3.56000000 -0.09176654 0.00000000)
		(3.58000000 -0.09176654 0.00000000)
		(3.60000000 -0.09176654 0.00000000)
		(3.62000000 -0.09176654 0.00000000)
		(3.64000000 -0.09176654 0.00000000)
		(3.66000000 -0.09176654 0.00000000)
		(3.68000000 -0.09176654 0.00000000)
		(3.70000000 -0.09176654 0.00000000)
		(3.72000000 -0.09176654 0.00000000)
		(3.74000000 -0.09176654 0.00000000)
		(3.76000000 -0.09176654 0.00000000)
		(3.78000000 -0.09176654 0.00000000)
		(3.80000000 -0.09176654 0.00000000)
		(3.82000000 -0.09176654 0.00000000)
		(3.84000000 -0.09176654 0.00000000)
		(3.86000000 -0.09176654 0.00000000)
		(3.88000000 -0.09176654 0.00000000)
		(3.90000000 -0.09176654 0.00000000)
		(3.92000000 -0.09176654 0.00000000)
		(3.94000000 -0.09176654 0.00000000)
		(3.96000000 -0.09176654 0.00000000)
		(3.98000000 -0.09176654 0.00000000)
		(4.00000000 -0.09176654 0.00000000)
	)
	polyLine 4 5
	(
		(-1.00000000 -0.24990759 0.10000000)
		(-0.98000000 -0.24990759 0.10000000)
		(-0.96000000 -0.24990759 0.10000000)
		(-0.94000000 -0.24990759 0.10000000)
		(-0.92000000 -0.24990759 0.10000000)
		(-0.90000000 -0.24990759 0.10000000)
		(-0.88000000 -0.24990759 0.10000000)
		(-0.86000000 -0.24990759 0.10000000)
		(-0.84000000 -0.24990759 0.10000000)
		(-0.82000000 -0.24990759 0.10000000)
		(-0.80000000 -0.24990759 0.10000000)
		(-0.78000000 -0.24990759 0.10000000)
		(-0.76000000 -0.24990759 0.10000000)
		(-0.74000000 -0.24990759 0.10000000)
		(-0.72000000 -0.24990759 0.10000000)
		(-0.70000000 -0.24990759 0.10000000)
		(-0.68000000 -0.24990759 0.10000000)
		(-0.66000000 -0.24990759 0.10000000)
		(-0.64000000 -0.24990759 0.10000000)
		(-0.62000000 -0.24990759 0.10000000)
		(-0.60000000 -0.24990759 0.10000000)
		(-0.58000000 -0.24990759 0.10000000)
		(-0.56000000 -0.24990759 0.10000000)
		(-0.54000000 -0.24990759 0.10000000)
		(-0.52000000 -0.24990759 0.10000000)
		(-0.50000000 -0.24990759 0.10000000)
		(-0.48000000 -0.24990759 0.10000000)
		(-0.46000000 -0.24990759 0.10000000)
		(-0.44000000 -0.24990759 0.10000000)
		(-0.42000000 -0.24990759 0.10000000)
		(-0.40000000 -0.24990759 0.10000000)
		(-0.38000000 -0.24990759 0.10000000)
		(-0.36000000 -0.24990759 0.10000000)
		(-0.34000000 -0.24990759 0.10000000)
		(-0.32000000 -0.24990759 0.10000000)
		(-0.30000000 -0.24990759 0.10000000)
		(-0.28000000 -0.24990759 0.10000000)
		(-0.26000000 -0.24990759 0.10000000)
		(-0.24000000 -0.24990759 0.10000000)
		(-0.22000000 -0.24990759 0.10000000)
		(-0.20000000 -0.24990759 0.10000000)
		(-0.18000000 -0.24990759 0.10000000)
		(-0.16000000 -0.24990759 0.10000000)
		(-0.14000000 -0.24990759 0.10000000)
		(-0.12000000 -0.24990759 0.10000000)
		(-0.10000000 -0.24990759 0.10000000)
		(-0.08162011 -0.24957859 0.10000000)
		(-0.06324022 -0.24859158 0.10000000)
		(-0.04486034 -0.24694657 0.10000000)
		(-0.02648045 -0.24464356 0.10000000)
		(-0.00810056 -0.24168254 0.10000000)
		(0.01027933 -0.23806352 0.10000000)
		(0.02865922 -0.23378649 0.10000000)
		(0.04703911 -0.22885146 0.10000000)
		(0.06541899 -0.22325843 0.10000000)
		(0.08379888 -0.21700739 0.10000000)
		(0.10055866 -0.20375195 0.10000000)
		(0.11731844 -0.18852217 0.10000000)
		(0.13407821 -0.17146563 0.10000000)
		(0.15083799 -0.15274759 0.10000000)
		(0.16759777 -0.13254944 0.10000000)
		(0.18435754 -0.11106690 0.10000000)
		(0.20111732 -0.08850812 0.10000000)
		(0.21787709 -0.06509171 0.10000000)
		(0.23463687 -0.04104457 0.10000000)
		(0.25139665 -0.01659970 0.10000000)
		(0.26815642 0.00800601 0.10000000)
		(0.28491620 0.03253415 0.10000000)
		(0.30167598 0.05674703 0.10000000)
		(0.31843575 0.08041004 0.10000000)
		(0.33519553 0.10329388 0.10000000)
		(0.35195531 0.12517681 0.10000000)
		(0.36871508 0.14584679 0.10000000)
		(0.38547486 0.16510352 0.10000000)
		(0.40223464 0.18276041 0.10000000)
		(0.41899441 0.19864636 0.10000000)
		(0.43575419 0.21260745 0.10000000)
		(0.45251397 0.22450838 0.10000000)
		(0.46927374 0.23423385 0.10000000)
		(0.48603352 0.24168960 0.10000000)
		(0.50279330 0.24680341 0.10000000)
		(0.51955307 0.24952570 0.10000000)
		(0.53631285 0.24983011 0.10000000)
		(0.55307263 0.24771368 0.10000000)
		(0.56983240 0.24319692 0.10000000)
		(0.58659218 0.23632361 0.10000000)
		(0.60335196 0.22716033 0.10000000)
		(0.62011173 0.21579589 0.10000000)
		(0.63687151 0.20234040 0.10000000)
		(0.65363128 0.18692425 0.10000000)
		(0.67039106 0.16969681 0.10000000)
		(0.68715084 0.15082502 0.10000000)
		(0.70391061 0.13049175 0.10000000)
		(0.72067039 0.10889403 0.10000000)
		(0.73743017 0.08624113 0.10000000)
		(0.75418994 0.06275256 0.10000000)
		(0.77094972 0.03865592 0.10000000)
		(0.78770950 0.01418471 0.10000000)
		(0.80446927 -0.01042395 0.10000000)
		(0.82122905 -0.03493160 0.10000000)
		(0.83798883 -0.05910077 0.10000000)
		(0.85474860 -0.08269726 0.10000000)
		(0.87150838 -0.10549241 0.10000000)
		(0.88826816 -0.12726535 0.10000000)
		(0.90502793 -0.14780510 0.10000000)
		(0.92178771 -0.16691263 0.10000000)
		(0.93854749 -0.18440279 0.10000000)
		(0.95530726 -0.20010610 0.10000000)
		(0.97206704 -0.21387039 0.10000000)
		(0.98882682 -0.22556230 0.10000000)
		(1.00558659 -0.23506852 0.10000000)
		(1.02234637 -0.24229694 0.10000000)
		(1.03910615 -0.24717753 0.10000000)
		(1.05586592 -0.24966298 0.10000000)
		(1.07262570 -0.24972922 0.10000000)
		(1.08938547 -0.24737560 0.10000000)
		(1.10614525 -0.24262493 0.10000000)
		(1.12290503 -0.23552323 0.10000000)
		(1.13966480 -0.22613934 0.10000000)
		(1.15642458 -0.21456417 0.10000000)
		(1.17318436 -0.20090989 0.10000000)
		(1.18994413 -0.18530881 0.10000000)
		(1.20670391 -0.16791210 0.10000000)
		(1.22346369 -0.14888833 0.10000000)
		(1.24022346 -0.12842185 0.10000000)
		(1.25698324 -0.10671096 0.10000000)
		(1.27374302 -0.08396606 0.10000000)
		(1.29050279 -0.06040753 0.10000000)
		(1.30726257 -0.03626366 0.10000000)
		(1.32402235 -0.01176839 0.10000000)
		(1.34078212 0.01284091 0.10000000)
		(1.35754190 0.03732579 0.10000000)
		(1.37430168 0.06144898 0.10000000)
		(1.39106145 0.08497673 0.10000000)
		(1.40782123 0.10768106 0.10000000)
		(1.42458101 0.12934198 0.10000000)
		(1.44134078 0.14974958 0.10000000)
		(1.45810056 0.16870611 0.10000000)
		(1.47486034 0.18602790 0.10000000)
		(1.49162011 0.20154709 0.10000000)
		(1.50837989 0.21511330 0.10000000)
		(1.52513966 0.22659508 0.10000000)
		(1.54189944 0.23588117 0.10000000)
		(1.55865922 0.24288159 0.10000000)
		(1.57541899 0.24752850 0.10000000)
		(1.59217877 0.24977688 0.10000000)
		(1.60893855 0.24960494 0.10000000)
		(1.62569832 0.24701435 0.10000000)
		(1.64245810 0.24203020 0.10000000)
		(1.65921788 0.23470080 0.10000000)
		(1.67597765 0.22509717 0.10000000)
		(1.69273743 0.21331236 0.10000000)
		(1.70949721 0.19946057 0.10000000)
		(1.72625698 0.18367602 0.10000000)
		(1.74301676 0.16611166 0.10000000)
		(1.75977654 0.14693769 0.10000000)
		(1.77653631 0.12633991 0.10000000)
		(1.79329609 0.10451790 0.10000000)
		(1.81005587 0.08168312 0.10000000)
		(1.82681564 0.05805684 0.10000000)
		(1.84357542 0.03386799 0.10000000)
		(1.86033520 0.00935097 0.10000000)
		(1.87709497 -0.01525667 0.10000000)
		(1.89385475 -0.03971647 0.10000000)
		(1.91061453 -0.06379142 0.10000000)
		(1.92737430 -0.08724824 0.10000000)
		(1.94413408 -0.10985963 0.10000000)
		(1.96089385 -0.13140649 0.10000000)
		(1.97765363 -0.15168002 0.10000000)
		(1.99441341 -0.17048379 0.10000000)
		(2.01117318 -0.18763558 0.10000000)
		(2.02793296 -0.20296920 0.10000000)
		(2.04469274 -0.21633606 0.10000000)
		(2.06145251 -0.22760664 0.10000000)
		(2.07821229 -0.23667173 0.10000000)
		(2.09497207 -0.24344348 0.10000000)
		(2.11173184 -0.24785629 0.10000000)
		(2.12849162 -0.24986738 0.10000000)
		(2.14525140 -0.24945728 0.10000000)
		(2.16201117 -0.24662996 0.10000000)
		(2.17877095 -0.24141281 0.10000000)
		(2.19553073 -0.23385638 0.10000000)
		(2.21229050 -0.22403391 0.10000000)
		(2.22905028 -0.21204056 0.10000000)
		(2.24581006 -0.19799256 0.10000000)
		(2.26256983 -0.18202602 0.10000000)
		(2.27932961 -0.16429566 0.10000000)
		(2.29608939 -0.14497329 0.10000000)
		(2.31284916 -0.12424614 0.10000000)
		(2.32960894 -0.10231505 0.10000000)
		(2.34636872 -0.07939254 0.10000000)
		(2.36312849 -0.05570071 0.10000000)
		(2.37988827 -0.03146916 0.10000000)
		(2.39664804 -0.00693267 0.10000000)
		(2.41340782 0.01767100 0.10000000)
		(2.43016760 0.04210344 0.10000000)
		(2.44692737 0.06612790 0.10000000)
		(2.46368715 0.08951158 0.10000000)
		(2.48044693 0.11202790 0.10000000)
		(2.49720670 0.13345868 0.10000000)
		(2.51396648 0.15359626 0.10000000)
		(2.53072626 0.17224550 0.10000000)
		(2.54748603 0.18922569 0.10000000)
		(2.56424581 0.20437230 0.10000000)
		(2.58100559 0.21753855 0.10000000)
		(2.59776536 0.22859688 0.10000000)
		(2.61452514 0.23744011 0.10000000)
		(2.63128492 0.24398257 0.10000000)
		(2.64804469 0.24816086 0.10000000)
		(2.66480447 0.24993448 0.10000000)
		(2.68156425 0.24928626 0.10000000)
		(2.69832402 0.24622247 0.10000000)
		(2.71508380 0.24077280 0.10000000)
		(2.73184358 0.23299006 0.10000000)
		(2.74860335 0.22294967 0.10000000)
		(2.76536313 0.21074890 0.10000000)
		(2.78212291 0.19650600 0.10000000)
		(2.79888268 0.18035897 0.10000000)
		(2.81564246 0.16246427 0.10000000)
		(2.83240223 0.14299531 0.10000000)
		(2.84916201 0.12214073 0.10000000)
		(2.86592179 0.10010261 0.10000000)
		(2.88268156 0.07709451 0.10000000)
		(2.89944134 0.05333937 0.10000000)
		(2.91620112 0.02906738 0.10000000)
		(2.93296089 0.00451372 0.10000000)
		(2.95166480 -0.01377953 0.10000000)
		(2.97036872 -0.03014717 0.10000000)
		(2.98907263 -0.04458921 0.10000000)
		(3.00777654 -0.05710564 0.10000000)
		(3.02648045 -0.06769647 0.10000000)
		(3.04518436 -0.07636169 0.10000000)
		(3.06388827 -0.08310131 0.10000000)
		(3.08259218 -0.08791533 0.10000000)
		(3.10129609 -0.09080373 0.10000000)
		(3.12000000 -0.09176654 0.10000000)
		(3.14000000 -0.09176654 0.10000000)
		(3.16000000 -0.09176654 0.10000000)
		(3.18000000 -0.09176654 0.10000000)
		(3.20000000 -0.09176654 0.10000000)
		(3.22000000 -0.09176654 0.10000000)
		(3.24000000 -0.09176654 0.10000000)
		(3.26000000 -0.09176654 0.10000000)
		(3.28000000 -0.09176654 0.10000000)
		(3.30000000 -0.09176654 0.10000000)
		(3.32000000 -0.09176654 0.10000000)
		(3.34000000 -0.09176654 0.10000000)
		(3.36000000 -0.09176654 0.10000000)
		(3.38000000 -0.09176654 0.10000000)
		(3.40000000 -0.09176654 0.10000000)
		(3.42000000 -0.09176654 0.10000000)
		(3.44000000 -0.09176654 0.10000000)
		(3.46000000 -0.09176654 0.10000000)
		(3.48000000 -0.09176654 0.10000000)
		(3.50000000 -0.09176654 0.10000000)
		(3.52000000 -0.09176654 0.10000000)
		(3.54000000 -0.09176654 0.10000000)
		(3.56000000 -0.09176654 0.10000000)
		(3.58000000 -0.09176654 0.10000000)
		(3.60000000 -0.09176654 0.10000000)
		(3.62000000 -0.09176654 0.10000000)
		(3.64000000 -0.09176654 0.10000000)
		(3.66000000 -0.09176654 0.10000000)
		(3.68000000 -0.09176654 0.10000000)
		(3.70000000 -0.09176654 0.10000000)
		(3.72000000 -0.09176654 0.10000000)
		(3.74000000 -0.09176654 0.10000000)
		(3.76000000 -0.09176654 0.10000000)
		(3.78000000 -0.09176654 0.10000000)
		(3.80000000 -0.09176654 0.10000000)
		(3.82000000 -0.09176654 0.10000000)
		(3.84000000 -0.09176654 0.10000000)
		(3.86000000 -0.09176654 0.10000000)
		(3.88000000 -0.09176654 0.10000000)
		(3.90000000 -0.09176654 0.10000000)
		(3.92000000 -0.09176654 0.10000000)
		(3.94000000 -0.09176654 0.10000000)
		(3.96000000 -0.09176654 0.10000000)
		(3.98000000 -0.09176654 0.10000000)
		(4.00000000 -0.09176654 0.10000000)
	)
	polyLine 3 2
	(
		(-1.00000000 0.25009241 0.00000000)
		(-0.98000000 0.24668000 0.00000000)
		(-0.96000000 0.24326758 0.00000000)
		(-0.94000000 0.23985517 0.00000000)
		(-0.92000000 0.23644276 0.00000000)
		(-0.90000000 0.23303035 0.00000000)
		(-0.88000000 0.22961794 0.00000000)
		(-0.86000000 0.22620552 0.00000000)
		(-0.84000000 0.22279311 0.00000000)
		(-0.82000000 0.21938070 0.00000000)
		(-0.80000000 0.21596829 0.00000000)
		(-0.78000000 0.21255588 0.00000000)
		(-0.76000000 0.20914346 0.00000000)
		(-0.74000000 0.20573105 0.00000000)
		(-0.72000000 0.20231864 0.00000000)
		(-0.70000000 0.19890623 0.00000000)
		(-0.68000000 0.19549382 0.00000000)
		(-0.66000000 0.19208140 0.00000000)
		(-0.64000000 0.18866899 0.00000000)
		(-0.62000000 0.18525658 0.00000000)
		(-0.60000000 0.18184417 0.00000000)
		(-0.58000000 0.17843176 0.00000000)
		(-0.56000000 0.17501934 0.00000000)
		(-0.54000000 0.17160693 0.00000000)
		(-0.52000000 0.16819452 0.00000000)
		(-0.50000000 0.16478211 0.00000000)
		(-0.48000000 0.16136970 0.00000000)
		(-0.46000000 0.15795728 0.00000000)
		(-0.44000000 0.15454487 0.00000000)
		(-0.42000000 0.15113246 0.00000000)
		(-0.40000000 0.14772005 0.00000000)
		(-0.38000000 0.14430764 0.00000000)
		(-0.36000000 0.14089522 0.00000000)
		(-0.34000000 0.13748281 0.00000000)
		(-0.32000000 0.13407040 0.00000000)
		(-0.30000000 0.13065799 0.00000000)
		(-0.28000000 0.12724558 0.00000000)
		(-0.26000000 0.12383316 0.00000000)
		(-0.24000000 0.12042075 0.00000000)
		(-0.22000000 0.11700834 0.00000000)
		(-0.20000000 0.11359593 0.00000000)
		(-0.18000000 0.11018352 0.00000000)
		(-0.16000000 0.10677110 0.00000000)
		(-0.14000000 0.10335869 0.00000000)
		(-0.12000000 0.09994628 0.00000000)
		(-0.10000000 0.09653387 0.00000000)
		(-0.08162011 0.09378142 0.00000000)
		(-0.06324022 0.09255760 0.00000000)
		(-0.04486034 0.09286239 0.00000000)
		(-0.02648045 0.09469580 0.00000000)
		(-0.00810056 0.09805784 0.00000000)
		(0.01027933 0.10294849 0.00000000)
		(0.02865922 0.10936776 0.00000000)
		(0.04703911 0.11731565 0.00000000)
		(0.06541899 0.12679216 0.00000000)
		(0.08379888 0.13779729 0.00000000)
		(0.10055866 0.15992168 0.00000000)
		(0.11731844 0.18534140 0.00000000)
		(0.13407821 0.21381014 0.00000000)
		(0.15083799 0.24505204 0.00000000)
		(0.16759777 0.27876437 0.00000000)
		(0.18435754 0.31462046 0.00000000)
		(0.20111732 0.35227286 0.00000000)
		(0.21787709 0.39135672 0.00000000)
		(0.23463687 0.43149333 0.00000000)
		(0.25139665 0.47229377 0.00000000)
		(0.26815642 0.51336268 0.00000000)
		(0.28491620 0.55430210 0.00000000)
		(0.30167598 0.59471534 0.00000000)
		(0.31843575 0.63421080 0.00000000)
		(0.33519553 0.67240576 0.00000000)
		(0.35195531 0.70893012 0.00000000)
		(0.36871508 0.74342997 0.00000000)
		(0.38547486 0.77557099 0.00000000)
		(0.40223464 0.80504176 0.00000000)
		(0.41899441 0.83155669 0.00000000)
		(0.43575419 0.85485886 0.00000000)
		(0.45251397 0.87472247 0.00000000)
		(0.46927374 0.89095505 0.00000000)
		(0.48603352 0.90339930 0.00000000)
		(0.50279330 0.91193465 0.00000000)
		(0.51955307 0.91647837 0.00000000)
		(0.53631285 0.91698645 0.00000000)
		(0.55307263 0.91345396 0.00000000)
		(0.56983240 0.90591514 0.00000000)
		(0.58659218 0.89444302 0.00000000)
		(0.60335196 0.87914878 0.00000000)
		(0.62011173 0.86018062 0.00000000)
		(0.63687151 0.83772233 0.00000000)
		(0.65363128 0.81199153 0.00000000)
		(0.67039106 0.78323756 0.00000000)
		(0.68715084 0.75173904 0.00000000)
		(0.70391061 0.71780119 0.00000000)
		(0.72067039 0.68175286 0.00000000)
		(0.73743017 0.64394335 0.00000000)
		(0.75418994 0.60473905 0.00000000)
		(0.77094972 0.56451983 0.00000000)
		(0.78770950 0.52367542 0.00000000)
		(0.80446927 0.48260159 0.00000000)
		(0.82122905 0.44169636 0.00000000)
		(0.83798883 0.40135608 0.00000000)
		(0.85474860 0.36197166 0.00000000)
		(0.87150838 0.32392472 0.00000000)
		(0.88826816 0.28758393 0.00000000)
		(0.90502793 0.25330145 0.00000000)
		(0.92178771 0.22140945 0.00000000)
		(0.93854749 0.19221698 0.00000000)
		(0.95530726 0.16600690 0.00000000)
		(0.97206704 0.14303319 0.00000000)
		(0.98882682 0.12351847 0.00000000)
		(1.00558659 0.10765182 0.00000000)
		(1.02234637 0.09558700 0.00000000)
		(1.03910615 0.08744091 0.00000000)
		(1.05586592 0.08329249 0.00000000)
		(1.07262570 0.08318194 0.00000000)
		(1.08938547 0.08711032 0.00000000)
		(1.10614525 0.09503957 0.00000000)
		(1.12290503 0.10689286 0.00000000)
		(1.13966480 0.12255533 0.00000000)
		(1.15642458 0.14187522 0.00000000)
		(1.17318436 0.16466530 0.00000000)
		(1.18994413 0.19070476 0.00000000)
		(1.20670391 0.21974126 0.00000000)
		(1.22346369 0.25149345 0.00000000)
		(1.24022346 0.28565365 0.00000000)
		(1.25698324 0.32189086 0.00000000)
		(1.27374302 0.35985392 0.00000000)
		(1.29050279 0.39917500 0.00000000)
		(1.30726257 0.43947306 0.00000000)
		(1.32402235 0.48035762 0.00000000)
		(1.34078212 0.52143251 0.00000000)
		(1.35754190 0.56229973 0.00000000)
		(1.37430168 0.60256326 0.00000000)
		(1.39106145 0.64183297 0.00000000)
		(1.40782123 0.67972832 0.00000000)
		(1.42458101 0.71588212 0.00000000)
		(1.44134078 0.74994403 0.00000000)
		(1.45810056 0.78158401 0.00000000)
		(1.47486034 0.81049546 0.00000000)
		(1.49162011 0.83639823 0.00000000)
		(1.50837989 0.85904132 0.00000000)
		(1.52513966 0.87820533 0.00000000)
		(1.54189944 0.89370456 0.00000000)
		(1.55865922 0.90538882 0.00000000)
		(1.57541899 0.91314489 0.00000000)
		(1.59217877 0.91689762 0.00000000)
		(1.60893855 0.91661063 0.00000000)
		(1.62569832 0.91228672 0.00000000)
		(1.64245810 0.90396779 0.00000000)
		(1.65921788 0.89173443 0.00000000)
		(1.67597765 0.87570520 0.00000000)
		(1.69273743 0.85603540 0.00000000)
		(1.70949721 0.83291566 0.00000000)
		(1.72625698 0.80656998 0.00000000)
		(1.74301676 0.77725366 0.00000000)
		(1.75977654 0.74525077 0.00000000)
		(1.77653631 0.71087142 0.00000000)
		(1.79329609 0.67444875 0.00000000)
		(1.81005587 0.63633567 0.00000000)
		(1.82681564 0.59690152 0.00000000)
		(1.84357542 0.55652839 0.00000000)
		(1.86033520 0.51560751 0.00000000)
		(1.87709497 0.47453539 0.00000000)
		(1.89385475 0.43371003 0.00000000)
		(1.91061453 0.39352701 0.00000000)
		(1.92737430 0.35437570 0.00000000)
		(1.94413408 0.31663548 0.00000000)
		(1.96089385 0.28067205 0.00000000)
		(1.97765363 0.24683390 0.00000000)
		(1.99441341 0.21544890 0.00000000)
		(2.01117318 0.18682119 0.00000000)
		(2.02793296 0.16122815 0.00000000)
		(2.04469274 0.13891779 0.00000000)
		(2.06145251 0.12010629 0.00000000)
		(2.07821229 0.10497594 0.00000000)
		(2.09497207 0.09367334 0.00000000)
		(2.11173184 0.08630801 0.00000000)
		(2.12849162 0.08295133 0.00000000)
		(2.14525140 0.08363582 0.00000000)
		(2.16201117 0.08835485 0.00000000)
		(2.17877095 0.09706269 0.00000000)
		(2.19553073 0.10967497 0.00000000)
		(2.21229050 0.12606947 0.00000000)
		(2.22905028 0.14608732 0.00000000)
		(2.24581006 0.16953457 0.00000000)
		(2.26256983 0.19618400 0.00000000)
		(2.27932961 0.22577739 0.00000000)
		(2.29608939 0.25802797 0.00000000)
		(2.31284916 0.29262325 0.00000000)
		(2.32960894 0.32922799 0.00000000)
		(2.34636872 0.36748750 0.00000000)
		(2.36312849 0.40703105 0.00000000)
		(2.37988827 0.44747546 0.00000000)
		(2.39664804 0.48842882 0.00000000)
		(2.41340782 0.52949432 0.00000000)
		(2.43016760 0.57027401 0.00000000)
		(2.44692737 0.61037275 0.00000000)
		(2.46368715 0.64940200 0.00000000)
		(2.48044693 0.68698354 0.00000000)