/*--------------------------------*- C++ -*----------------------------------*\\
/*--------------------------------*- C++ -*----------------------------------*\\
| =========                 |                                                 |
| \\\\      /  F ield         | OpenFOAM: The Open Source CFD Toolbox           |
|  \\\\    /   O peration     | Version:  v2012                                 |
|   \\\\  /    A nd           | Website:  www.openfoam.com                      |
|    \\\\/     M anipulation  |                                                 |
\\*---------------------------------------------------------------------------*/
FoamFile
{
    version     2.0;
    format      ascii;
    class       dictionary;
    object      blockMeshDict;
}
// * * * * * * * * * * * * * * * * * * * * * * * * * * * * * * * * * * * * * //

scale   0.01;

xmin -1;
xmax 5;
ymin 0;
ymax 0.5;
zmin 0;
zmax 0.1;

vertices
(
    (-1.00000000 -0.13312540 0.00000000)
    (4.00000000 0.24417511 0.00000000)
    (4.00000000 0.74417511 0.00000000)
    (-1.00000000 0.36687460 0.00000000)
    (-1.00000000 -0.13312540 0.10000000)
    (4.00000000 0.24417511 0.10000000)
    (4.00000000 0.74417511 0.10000000)
    (-1.00000000 0.36687460 0.10000000)
);

blocks
(
    hex (0 1 2 3 4 5 6 7) (200 20 1) simpleGrading (1 1 1)
);

edges
(
	polyLine 0 1
	(
		(-1.00000000 -0.13312540 0.00000000)
		(-0.98000000 -0.13312540 0.00000000)
		(-0.96000000 -0.13312540 0.00000000)
		(-0.94000000 -0.13312540 0.00000000)
		(-0.92000000 -0.13312540 0.00000000)
		(-0.90000000 -0.13312540 0.00000000)
		(-0.88000000 -0.13312540 0.00000000)
		(-0.86000000 -0.13312540 0.00000000)
		(-0.84000000 -0.13312540 0.00000000)
		(-0.82000000 -0.13312540 0.00000000)
		(-0.80000000 -0.13312540 0.00000000)
		(-0.78000000 -0.13312540 0.00000000)
		(-0.76000000 -0.13312540 0.00000000)
		(-0.74000000 -0.13312540 0.00000000)
		(-0.72000000 -0.13312540 0.00000000)
		(-0.70000000 -0.13312540 0.00000000)
		(-0.68000000 -0.13312540 0.00000000)
		(-0.66000000 -0.13312540 0.00000000)
		(-0.64000000 -0.13312540 0.00000000)
		(-0.62000000 -0.13312540 0.00000000)
		(-0.60000000 -0.13312540 0.00000000)
		(-0.58000000 -0.13312540 0.00000000)
		(-0.56000000 -0.13312540 0.00000000)
		(-0.54000000 -0.13312540 0.00000000)
		(-0.52000000 -0.13312540 0.00000000)
		(-0.50000000 -0.13312540 0.00000000)
		(-0.48000000 -0.13312540 0.00000000)
		(-0.46000000 -0.13312540 0.00000000)
		(-0.44000000 -0.13312540 0.00000000)
		(-0.42000000 -0.13312540 0.00000000)
		(-0.40000000 -0.13312540 0.00000000)
		(-0.38000000 -0.13312540 0.00000000)
		(-0.36000000 -0.13312540 0.00000000)
		(-0.34000000 -0.13312540 0.00000000)
		(-0.32000000 -0.13312540 0.00000000)
		(-0.30000000 -0.13312540 0.00000000)
		(-0.28000000 -0.13312540 0.00000000)
		(-0.26000000 -0.13312540 0.00000000)
		(-0.24000000 -0.13312540 0.00000000)
		(-0.22000000 -0.13312540 0.00000000)
		(-0.20000000 -0.13312540 0.00000000)
		(-0.18000000 -0.13312540 0.00000000)
		(-0.16000000 -0.13312540 0.00000000)
		(-0.14000000 -0.13312540 0.00000000)
		(-0.12000000 -0.13312540 0.00000000)
		(-0.10000000 -0.13312540 0.00000000)
		(-0.08162011 -0.13392764 0.00000000)
		(-0.06324022 -0.13633438 0.00000000)
		(-0.04486034 -0.14034560 0.00000000)
		(-0.02648045 -0.14596132 0.00000000)
		(-0.00810056 -0.15318152 0.00000000)
		(0.01027933 -0.16200622 0.00000000)
		(0.02865922 -0.17243540 0.00000000)
		(0.04703911 -0.18446908 0.00000000)
		(0.06541899 -0.19810724 0.00000000)
		(0.08379888 -0.21334989 0.00000000)
		(0.10055866 -0.22443990 0.00000000)
		(0.11731844 -0.23362400 0.00000000)
		(0.13407821 -0.24082419 0.00000000)
		(0.15083799 -0.24597934 0.00000000)
		(0.16759777 -0.24904567 0.00000000)
		(0.18435754 -0.24999714 0.00000000)
		(0.20111732 -0.24882568 0.00000000)
		(0.21787709 -0.24554122 0.00000000)
		(0.23463687 -0.24017166 0.00000000)
		(0.25139665 -0.23276259 0.00000000)
		(0.26815642 -0.22337695 0.00000000)
		(0.28491620 -0.21209441 0.00000000)
		(0.30167598 -0.19901081 0.00000000)
		(0.31843575 -0.18423723 0.00000000)
		(0.33519553 -0.16789914 0.00000000)
		(0.35195531 -0.15013527 0.00000000)
		(0.36871508 -0.13109647 0.00000000)
		(0.38547486 -0.11094442 0.00000000)
		(0.40223464 -0.08985025 0.00000000)
		(0.41899441 -0.06799309 0.00000000)
		(0.43575419 -0.04555853 0.00000000)
		(0.45251397 -0.02273710 0.00000000)
		(0.46927374 0.00027741 0.00000000)
		(0.48603352 0.02328956 0.00000000)
		(0.50279330 0.04610395 0.00000000)
		(0.51955307 0.06852682 0.00000000)
		(0.53631285 0.09036778 0.00000000)
		(0.55307263 0.11144134 0.00000000)
		(0.56983240 0.13156856 0.00000000)
		(0.58659218 0.15057852 0.00000000)
		(0.60335196 0.16830979 0.00000000)
		(0.62011173 0.18461180 0.00000000)
		(0.63687151 0.19934611 0.00000000)
		(0.65363128 0.21238761 0.00000000)
		(0.67039106 0.22362554 0.00000000)
		(0.68715084 0.23296447 0.00000000)
		(0.70391061 0.24032510 0.00000000)
		(0.72067039 0.24564493 0.00000000)
		(0.73743017 0.24887878 0.00000000)
		(0.75418994 0.24999918 0.00000000)
		(0.77094972 0.24899663 0.00000000)
		(0.78770950 0.24587963 0.00000000)
		(0.80446927 0.24067466 0.00000000)
		(0.82122905 0.23342592 0.00000000)
		(0.83798883 0.22419496 0.00000000)
		(0.85474860 0.21306017 0.00000000)
		(0.87150838 0.20011610 0.00000000)
		(0.88826816 0.18547267 0.00000000)
		(0.90502793 0.16925424 0.00000000)
		(0.92178771 0.15159853 0.00000000)
		(0.93854749 0.13265546 0.00000000)
		(0.95530726 0.11258590 0.00000000)
		(0.97206704 0.09156028 0.00000000)
		(0.98882682 0.06975714 0.00000000)
		(1.00558659 0.04736164 0.00000000)
		(1.02234637 0.02456395 0.00000000)
		(1.03910615 0.00155766 0.00000000)
		(1.05586592 -0.02146185 0.00000000)
		(1.07262570 -0.04429912 0.00000000)
		(1.08938547 -0.06676020 0.00000000)
		(1.10614525 -0.08865436 0.00000000)
		(1.12290503 -0.10979568 0.00000000)
		(1.13966480 -0.13000464 0.00000000)
		(1.15642458 -0.14910961 0.00000000)
		(1.17318436 -0.16694837 0.00000000)
		(1.18994413 -0.18336943 0.00000000)
		(1.20670391 -0.19823334 0.00000000)
		(1.22346369 -0.21141388 0.00000000)
		(1.24022346 -0.22279912 0.00000000)
		(1.25698324 -0.23229239 0.00000000)
		(1.27374302 -0.23981306 0.00000000)
		(1.29050279 -0.24529728 0.00000000)
		(1.30726257 -0.24869847 0.00000000)
		(1.32402235 -0.24998775 0.00000000)
		(1.34078212 -0.24915416 0.00000000)
		(1.35754190 -0.24620480 0.00000000)
		(1.37430168 -0.24116470 0.00000000)
		(1.39106145 -0.23407667 0.00000000)
		(1.40782123 -0.22500089 0.00000000)
		(1.42458101 -0.21401444 0.00000000)
		(1.44134078 -0.20121061 0.00000000)
		(1.45810056 -0.18669812 0.00000000)
		(1.47486034 -0.17060023 0.00000000)
		(1.49162011 -0.15305362 0.00000000)
		(1.50837989 -0.13420730 0.00000000)
		(1.52513966 -0.11422131 0.00000000)
		(1.54189944 -0.09326538 0.00000000)
		(1.55865922 -0.07151744 0.00000000)
		(1.57541899 -0.04916219 0.00000000)
		(1.59217877 -0.02638947 0.00000000)
		(1.60893855 -0.00339264 0.00000000)
		(1.62569832 0.01963299 0.00000000)
		(1.64245810 0.04249190 0.00000000)
		(1.65921788 0.06498998 0.00000000)
		(1.67597765 0.08693617 0.00000000)
		(1.69273743 0.10814411 0.00000000)
		(1.70949721 0.12843371 0.00000000)
		(1.72625698 0.14763267 0.00000000)
		(1.74301676 0.16557795 0.00000000)
		(1.75977654 0.18211717 0.00000000)
		(1.77653631 0.19710988 0.00000000)
		(1.79329609 0.21042876 0.00000000)
		(1.81005587 0.22196070 0.00000000)
		(1.82681564 0.23160779 0.00000000)
		(1.84357542 0.23928810 0.00000000)
		(1.86033520 0.24493642 0.00000000)
		(1.87709497 0.24850476 0.00000000)
		(1.89385475 0.24996284 0.00000000)
		(1.91061453 0.24929828 0.00000000)
		(1.92737430 0.24651671 0.00000000)
		(1.94413408 0.24164175 0.00000000)
		(1.96089385 0.23471481 0.00000000)
		(1.97765363 0.22579470 0.00000000)
		(1.99441341 0.21495718 0.00000000)
		(2.01117318 0.20229427 0.00000000)
		(2.02793296 0.18791351 0.00000000)
		(2.04469274 0.17193702 0.00000000)
		(2.06145251 0.15450046 0.00000000)
		(2.07821229 0.13575191 0.00000000)
		(2.09497207 0.11585057 0.00000000)
		(2.11173184 0.09496545 0.00000000)
		(2.12849162 0.07327389 0.00000000)
		(2.14525140 0.05096010 0.00000000)
		(2.16201117 0.02821357 0.00000000)
		(2.17877095 0.00522745 0.00000000)
		(2.19553073 -0.01780307 0.00000000)
		(2.21229050 -0.04068239 0.00000000)
		(2.22905028 -0.06321626 0.00000000)
		(2.24581006 -0.08521329 0.00000000)
		(2.26256983 -0.10648671 0.00000000)
		(2.27932961 -0.12685586 0.00000000)
		(2.29608939 -0.14614777 0.00000000)
		(2.31284916 -0.16419861 0.00000000)
		(2.32960894 -0.18085510 0.00000000)
		(2.34636872 -0.19597580 0.00000000)
		(2.36312849 -0.20943230 0.00000000)
		(2.37988827 -0.22111033 0.00000000)
		(2.39664804 -0.23091072 0.00000000)
		(2.41340782 -0.23875025 0.00000000)
		(2.43016760 -0.24456235 0.00000000)
		(2.44692737 -0.24829767 0.00000000)
		(2.46368715 -0.24992447 0.00000000)
		(2.48044693 -0.24942896 0.00000000)
		(2.49720670 -0.24681533 0.00000000)
		(2.51396648 -0.24210578 0.00000000)
		(2.53072626 -0.23534030 0.00000000)
		(2.54748603 -0.22657635 0.00000000)
		(2.56424581 -0.21588834 0.00000000)
		(2.58100559 -0.20336704 0.00000000)
		(2.59776536 -0.18911878 0.00000000)
		(2.61452514 -0.17326455 0.00000000)
		(2.63128492 -0.15593898 0.00000000)
		(2.64804469 -0.13728920 0.00000000)
		(2.66480447 -0.11747359 0.00000000)
		(2.68156425 -0.09666040 0.00000000)
		(2.69832402 -0.07502639 0.00000000)
		(2.71508380 -0.05275526 0.00000000)
		(2.73184358 -0.03003614 0.00000000)
		(2.74860335 -0.00706196 0.00000000)
		(2.76536313 0.01597218 0.00000000)
		(2.78212291 0.03887070 0.00000000)
		(2.79888268 0.06143913 0.00000000)
		(2.81564246 0.08348583 0.00000000)
		(2.83240223 0.10482357 0.00000000)
		(2.84916201 0.12527118 0.00000000)
		(2.86592179 0.14465499 0.00000000)
		(2.88268156 0.16281042 0.00000000)
		(2.89944134 0.17958329 0.00000000)
		(2.91620112 0.19483116 0.00000000)
		(2.93296089 0.20842455 0.00000000)
		(2.95166480 0.21521716 0.00000000)
		(2.97036872 0.22129475 0.00000000)
		(2.98907263 0.22665734 0.00000000)
		(3.00777654 0.23130491 0.00000000)
		(3.02648045 0.23523747 0.00000000)
		(3.04518436 0.23845502 0.00000000)
		(3.06388827 0.24095756 0.00000000)
		(3.08259218 0.24274509 0.00000000)
		(3.10129609 0.24381761 0.00000000)
		(3.12000000 0.24417511 0.00000000)
		(3.14000000 0.24417511 0.00000000)
		(3.16000000 0.24417511 0.00000000)
		(3.18000000 0.24417511 0.00000000)
		(3.20000000 0.24417511 0.00000000)
		(3.22000000 0.24417511 0.00000000)
		(3.24000000 0.24417511 0.00000000)
		(3.26000000 0.24417511 0.00000000)
		(3.28000000 0.24417511 0.00000000)
		(3.30000000 0.24417511 0.00000000)
		(3.32000000 0.24417511 0.00000000)
		(3.34000000 0.24417511 0.00000000)
		(3.36000000 0.24417511 0.00000000)
		(3.38000000 0.24417511 0.00000000)
		(3.40000000 0.24417511 0.00000000)
		(3.42000000 0.24417511 0.00000000)
		(3.44000000 0.24417511 0.00000000)
		(3.46000000 0.24417511 0.00000000)
		(3.48000000 0.24417511 0.00000000)
		(3.50000000 0.24417511 0.00000000)
		(3.52000000 0.24417511 0.00000000)
		(3.54000000 0.24417511 0.00000000)
		(3.56000000 0.24417511 0.00000000)
		(3.58000000 0.24417511 0.00000000)
		(3.60000000 0.24417511 0.00000000)
		(3.62000000 0.24417511 0.00000000)
		(3.64000000 0.24417511 0.00000000)
		(3.66000000 0.24417511 0.00000000)
		(3.68000000 0.24417511 0.00000000)
		(3.70000000 0.24417511 0.00000000)
		(3.72000000 0.24417511 0.00000000)
		(3.74000000 0.24417511 0.00000000)
		(3.76000000 0.24417511 0.00000000)
		(3.78000000 0.24417511 0.00000000)
		(3.80000000 0.24417511 0.00000000)
		(3.82000000 0.24417511 0.00000000)
		(3.84000000 0.24417511 0.00000000)
		(3.86000000 0.24417511 0.00000000)
		(3.88000000 0.24417511 0.00000000)
		(3.90000000 0.24417511 0.00000000)
		(3.92000000 0.24417511 0.00000000)
		(3.94000000 0.24417511 0.00000000)
		(3.96000000 0.24417511 0.00000000)
		(3.98000000 0.24417511 0.00000000)
		(4.00000000 0.24417511 0.00000000)
	)
	polyLine 4 5
	(
		(-1.00000000 -0.13312540 0.10000000)
		(-0.98000000 -0.13312540 0.10000000)
		(-0.96000000 -0.13312540 0.10000000)
		(-0.94000000 -0.13312540 0.10000000)
		(-0.92000000 -0.13312540 0.10000000)
		(-0.90000000 -0.13312540 0.10000000)
		(-0.88000000 -0.13312540 0.10000000)
		(-0.86000000 -0.13312540 0.10000000)
		(-0.84000000 -0.13312540 0.10000000)
		(-0.82000000 -0.13312540 0.10000000)
		(-0.80000000 -0.13312540 0.10000000)
		(-0.78000000 -0.13312540 0.10000000)
		(-0.76000000 -0.13312540 0.10000000)
		(-0.74000000 -0.13312540 0.10000000)
		(-0.72000000 -0.13312540 0.10000000)
		(-0.70000000 -0.13312540 0.10000000)
		(-0.68000000 -0.13312540 0.10000000)
		(-0.66000000 -0.13312540 0.10000000)
		(-0.64000000 -0.13312540 0.10000000)
		(-0.62000000 -0.13312540 0.10000000)
		(-0.60000000 -0.13312540 0.10000000)
		(-0.58000000 -0.13312540 0.10000000)
		(-0.56000000 -0.13312540 0.10000000)
		(-0.54000000 -0.13312540 0.10000000)
		(-0.52000000 -0.13312540 0.10000000)
		(-0.50000000 -0.13312540 0.10000000)
		(-0.48000000 -0.13312540 0.10000000)
		(-0.46000000 -0.13312540 0.10000000)
		(-0.44000000 -0.13312540 0.10000000)
		(-0.42000000 -0.13312540 0.10000000)
		(-0.40000000 -0.13312540 0.10000000)
		(-0.38000000 -0.13312540 0.10000000)
		(-0.36000000 -0.13312540 0.10000000)
		(-0.34000000 -0.13312540 0.10000000)
		(-0.32000000 -0.13312540 0.10000000)
		(-0.30000000 -0.13312540 0.10000000)
		(-0.28000000 -0.13312540 0.10000000)
		(-0.26000000 -0.13312540 0.10000000)
		(-0.24000000 -0.13312540 0.10000000)
		(-0.22000000 -0.13312540 0.10000000)
		(-0.20000000 -0.13312540 0.10000000)
		(-0.18000000 -0.13312540 0.10000000)
		(-0.16000000 -0.13312540 0.10000000)
		(-0.14000000 -0.13312540 0.10000000)
		(-0.12000000 -0.13312540 0.10000000)
		(-0.10000000 -0.13312540 0.10000000)
		(-0.08162011 -0.13392764 0.10000000)
		(-0.06324022 -0.13633438 0.10000000)
		(-0.04486034 -0.14034560 0.10000000)
		(-0.02648045 -0.14596132 0.10000000)
		(-0.00810056 -0.15318152 0.10000000)
		(0.01027933 -0.16200622 0.10000000)
		(0.02865922 -0.17243540 0.10000000)
		(0.04703911 -0.18446908 0.10000000)
		(0.06541899 -0.19810724 0.10000000)
		(0.08379888 -0.21334989 0.10000000)
		(0.10055866 -0.22443990 0.10000000)
		(0.11731844 -0.23362400 0.10000000)
		(0.13407821 -0.24082419 0.10000000)
		(0.15083799 -0.24597934 0.10000000)
		(0.16759777 -0.24904567 0.10000000)
		(0.18435754 -0.24999714 0.10000000)
		(0.20111732 -0.24882568 0.10000000)
		(0.21787709 -0.24554122 0.10000000)
		(0.23463687 -0.24017166 0.10000000)
		(0.25139665 -0.23276259 0.10000000)
		(0.26815642 -0.22337695 0.10000000)
		(0.28491620 -0.21209441 0.10000000)
		(0.30167598 -0.19901081 0.10000000)
		(0.31843575 -0.18423723 0.10000000)
		(0.33519553 -0.16789914 0.10000000)
		(0.35195531 -0.15013527 0.10000000)
		(0.36871508 -0.13109647 0.10000000)
		(0.38547486 -0.11094442 0.10000000)
		(0.40223464 -0.08985025 0.10000000)
		(0.41899441 -0.06799309 0.10000000)
		(0.43575419 -0.04555853 0.10000000)
		(0.45251397 -0.02273710 0.10000000)
		(0.46927374 0.00027741 0.10000000)
		(0.48603352 0.02328956 0.10000000)
		(0.50279330 0.04610395 0.10000000)
		(0.51955307 0.06852682 0.10000000)
		(0.53631285 0.09036778 0.10000000)
		(0.55307263 0.11144134 0.10000000)
		(0.56983240 0.13156856 0.10000000)
		(0.58659218 0.15057852 0.10000000)
		(0.60335196 0.16830979 0.10000000)
		(0.62011173 0.18461180 0.10000000)
		(0.63687151 0.19934611 0.10000000)
		(0.65363128 0.21238761 0.10000000)
		(0.67039106 0.22362554 0.10000000)
		(0.68715084 0.23296447 0.10000000)
		(0.70391061 0.24032510 0.10000000)
		(0.72067039 0.24564493 0.10000000)
		(0.73743017 0.24887878 0.10000000)
		(0.75418994 0.24999918 0.10000000)
		(0.77094972 0.24899663 0.10000000)
		(0.78770950 0.24587963 0.10000000)
		(0.80446927 0.24067466 0.10000000)
		(0.82122905 0.23342592 0.10000000)
		(0.83798883 0.22419496 0.10000000)
		(0.85474860 0.21306017 0.10000000)
		(0.87150838 0.20011610 0.10000000)
		(0.88826816 0.18547267 0.10000000)
		(0.90502793 0.16925424 0.10000000)
		(0.92178771 0.15159853 0.10000000)
		(0.93854749 0.13265546 0.10000000)
		(0.95530726 0.11258590 0.10000000)
		(0.97206704 0.09156028 0.10000000)
		(0.98882682 0.06975714 0.10000000)
		(1.00558659 0.04736164 0.10000000)
		(1.02234637 0.02456395 0.10000000)
		(1.03910615 0.00155766 0.10000000)
		(1.05586592 -0.02146185 0.10000000)
		(1.07262570 -0.04429912 0.10000000)
		(1.08938547 -0.06676020 0.10000000)
		(1.10614525 -0.08865436 0.10000000)
		(1.12290503 -0.10979568 0.10000000)
		(1.13966480 -0.13000464 0.10000000)
		(1.15642458 -0.14910961 0.10000000)
		(1.17318436 -0.16694837 0.10000000)
		(1.18994413 -0.18336943 0.10000000)
		(1.20670391 -0.19823334 0.10000000)
		(1.22346369 -0.21141388 0.10000000)
		(1.24022346 -0.22279912 0.10000000)
		(1.25698324 -0.23229239 0.10000000)
		(1.27374302 -0.23981306 0.10000000)
		(1.29050279 -0.24529728 0.10000000)
		(1.30726257 -0.24869847 0.10000000)
		(1.32402235 -0.24998775 0.10000000)
		(1.34078212 -0.24915416 0.10000000)
		(1.35754190 -0.24620480 0.10000000)
		(1.37430168 -0.24116470 0.10000000)
		(1.39106145 -0.23407667 0.10000000)
		(1.40782123 -0.22500089 0.10000000)
		(1.42458101 -0.21401444 0.10000000)
		(1.44134078 -0.20121061 0.10000000)
		(1.45810056 -0.18669812 0.10000000)
		(1.47486034 -0.17060023 0.10000000)
		(1.49162011 -0.15305362 0.10000000)
		(1.50837989 -0.13420730 0.10000000)
		(1.52513966 -0.11422131 0.10000000)
		(1.54189944 -0.09326538 0.10000000)
		(1.55865922 -0.07151744 0.10000000)
		(1.57541899 -0.04916219 0.10000000)
		(1.59217877 -0.02638947 0.10000000)
		(1.60893855 -0.00339264 0.10000000)
		(1.62569832 0.01963299 0.10000000)
		(1.64245810 0.04249190 0.10000000)
		(1.65921788 0.06498998 0.10000000)
		(1.67597765 0.08693617 0.10000000)
		(1.69273743 0.10814411 0.10000000)
		(1.70949721 0.12843371 0.10000000)
		(1.72625698 0.14763267 0.10000000)
		(1.74301676 0.16557795 0.10000000)
		(1.75977654 0.18211717 0.10000000)
		(1.77653631 0.19710988 0.10000000)
		(1.79329609 0.21042876 0.10000000)
		(1.81005587 0.22196070 0.10000000)
		(1.82681564 0.23160779 0.10000000)
		(1.84357542 0.23928810 0.10000000)
		(1.86033520 0.24493642 0.10000000)
		(1.87709497 0.24850476 0.10000000)
		(1.89385475 0.24996284 0.10000000)
		(1.91061453 0.24929828 0.10000000)
		(1.92737430 0.24651671 0.10000000)
		(1.94413408 0.24164175 0.10000000)
		(1.96089385 0.23471481 0.10000000)
		(1.97765363 0.22579470 0.10000000)
		(1.99441341 0.21495718 0.10000000)
		(2.01117318 0.20229427 0.10000000)
		(2.02793296 0.18791351 0.10000000)
		(2.04469274 0.17193702 0.10000000)
		(2.06145251 0.15450046 0.10000000)
		(2.07821229 0.13575191 0.10000000)
		(2.09497207 0.11585057 0.10000000)
		(2.11173184 0.09496545 0.10000000)
		(2.12849162 0.07327389 0.10000000)
		(2.14525140 0.05096010 0.10000000)
		(2.16201117 0.02821357 0.10000000)
		(2.17877095 0.00522745 0.10000000)
		(2.19553073 -0.01780307 0.10000000)
		(2.21229050 -0.04068239 0.10000000)
		(2.22905028 -0.06321626 0.10000000)
		(2.24581006 -0.08521329 0.10000000)
		(2.26256983 -0.10648671 0.10000000)
		(2.27932961 -0.12685586 0.10000000)
		(2.29608939 -0.14614777 0.10000000)
		(2.31284916 -0.16419861 0.10000000)
		(2.32960894 -0.18085510 0.10000000)
		(2.34636872 -0.19597580 0.10000000)
		(2.36312849 -0.20943230 0.10000000)
		(2.37988827 -0.22111033 0.10000000)
		(2.39664804 -0.23091072 0.10000000)
		(2.41340782 -0.23875025 0.10000000)
		(2.43016760 -0.24456235 0.10000000)
		(2.44692737 -0.24829767 0.10000000)
		(2.46368715 -0.24992447 0.10000000)
		(2.48044693 -0.24942896 0.10000000)
		(2.49720670 -0.24681533 0.10000000)
		(2.51396648 -0.24210578 0.10000000)
		(2.53072626 -0.23534030 0.10000000)
		(2.54748603 -0.22657635 0.10000000)
		(2.56424581 -0.21588834 0.10000000)
		(2.58100559 -0.20336704 0.10000000)
		(2.59776536 -0.18911878 0.10000000)
		(2.61452514 -0.17326455 0.10000000)
		(2.63128492 -0.15593898 0.10000000)
		(2.64804469 -0.13728920 0.10000000)
		(2.66480447 -0.11747359 0.10000000)
		(2.68156425 -0.09666040 0.10000000)
		(2.69832402 -0.07502639 0.10000000)
		(2.71508380 -0.05275526 0.10000000)
		(2.73184358 -0.03003614 0.10000000)
		(2.74860335 -0.00706196 0.10000000)
		(2.76536313 0.01597218 0.10000000)
		(2.78212291 0.03887070 0.10000000)
		(2.79888268 0.06143913 0.10000000)
		(2.81564246 0.08348583 0.10000000)
		(2.83240223 0.10482357 0.10000000)
		(2.84916201 0.12527118 0.10000000)
		(2.86592179 0.14465499 0.10000000)
		(2.88268156 0.16281042 0.10000000)
		(2.89944134 0.17958329 0.10000000)
		(2.91620112 0.19483116 0.10000000)
		(2.93296089 0.20842455 0.10000000)
		(2.95166480 0.21521716 0.10000000)
		(2.97036872 0.22129475 0.10000000)
		(2.98907263 0.22665734 0.10000000)
		(3.00777654 0.23130491 0.10000000)
		(3.02648045 0.23523747 0.10000000)
		(3.04518436 0.23845502 0.10000000)
		(3.06388827 0.24095756 0.10000000)
		(3.08259218 0.24274509 0.10000000)
		(3.10129609 0.24381761 0.10000000)
		(3.12000000 0.24417511 0.10000000)
		(3.14000000 0.24417511 0.10000000)
		(3.16000000 0.24417511 0.10000000)
		(3.18000000 0.24417511 0.10000000)
		(3.20000000 0.24417511 0.10000000)
		(3.22000000 0.24417511 0.10000000)
		(3.24000000 0.24417511 0.10000000)
		(3.26000000 0.24417511 0.10000000)
		(3.28000000 0.24417511 0.10000000)
		(3.30000000 0.24417511 0.10000000)
		(3.32000000 0.24417511 0.10000000)
		(3.34000000 0.24417511 0.10000000)
		(3.36000000 0.24417511 0.10000000)
		(3.38000000 0.24417511 0.10000000)
		(3.40000000 0.24417511 0.10000000)
		(3.42000000 0.24417511 0.10000000)
		(3.44000000 0.24417511 0.10000000)
		(3.46000000 0.24417511 0.10000000)
		(3.48000000 0.24417511 0.10000000)
		(3.50000000 0.24417511 0.10000000)
		(3.52000000 0.24417511 0.10000000)
		(3.54000000 0.24417511 0.10000000)
		(3.56000000 0.24417511 0.10000000)
		(3.58000000 0.24417511 0.10000000)
		(3.60000000 0.24417511 0.10000000)
		(3.62000000 0.24417511 0.10000000)
		(3.64000000 0.24417511 0.10000000)
		(3.66000000 0.24417511 0.10000000)
		(3.68000000 0.24417511 0.10000000)
		(3.70000000 0.24417511 0.10000000)
		(3.72000000 0.24417511 0.10000000)
		(3.74000000 0.24417511 0.10000000)
		(3.76000000 0.24417511 0.10000000)
		(3.78000000 0.24417511 0.10000000)
		(3.80000000 0.24417511 0.10000000)
		(3.82000000 0.24417511 0.10000000)
		(3.84000000 0.24417511 0.10000000)
		(3.86000000 0.24417511 0.10000000)
		(3.88000000 0.24417511 0.10000000)
		(3.90000000 0.24417511 0.10000000)
		(3.92000000 0.24417511 0.10000000)
		(3.94000000 0.24417511 0.10000000)
		(3.96000000 0.24417511 0.10000000)
		(3.98000000 0.24417511 0.10000000)
		(4.00000000 0.24417511 0.10000000)
	)
	polyLine 3 2
	(
		(-1.00000000 0.36687460 0.00000000)
		(-0.98000000 0.36575179 0.00000000)
		(-0.96000000 0.36462897 0.00000000)
		(-0.94000000 0.36350616 0.00000000)
		(-0.92000000 0.36238335 0.00000000)
		(-0.90000000 0.36126053 0.00000000)
		(-0.88000000 0.36013772 0.00000000)
		(-0.86000000 0.35901491 0.00000000)
		(-0.84000000 0.35789209 0.00000000)
		(-0.82000000 0.35676928 0.00000000)
		(-0.80000000 0.35564647 0.00000000)
		(-0.78000000 0.35452365 0.00000000)
		(-0.76000000 0.35340084 0.00000000)
		(-0.74000000 0.35227802 0.00000000)
		(-0.72000000 0.35115521 0.00000000)
		(-0.70000000 0.35003240 0.00000000)
		(-0.68000000 0.34890958 0.00000000)
		(-0.66000000 0.34778677 0.00000000)
		(-0.64000000 0.34666396 0.00000000)
		(-0.62000000 0.34554114 0.00000000)
		(-0.60000000 0.34441833 0.00000000)
		(-0.58000000 0.34329552 0.00000000)
		(-0.56000000 0.34217270 0.00000000)
		(-0.54000000 0.34104989 0.00000000)
		(-0.52000000 0.33992708 0.00000000)
		(-0.50000000 0.33880426 0.00000000)
		(-0.48000000 0.33768145 0.00000000)
		(-0.46000000 0.33655864 0.00000000)
		(-0.44000000 0.33543582 0.00000000)
		(-0.42000000 0.33431301 0.00000000)
		(-0.40000000 0.33319019 0.00000000)
		(-0.38000000 0.33206738 0.00000000)
		(-0.36000000 0.33094457 0.00000000)
		(-0.34000000 0.32982175 0.00000000)
		(-0.32000000 0.32869894 0.00000000)
		(-0.30000000 0.32757613 0.00000000)
		(-0.28000000 0.32645331 0.00000000)
		(-0.26000000 0.32533050 0.00000000)
		(-0.24000000 0.32420769 0.00000000)
		(-0.22000000 0.32308487 0.00000000)
		(-0.20000000 0.32196206 0.00000000)
		(-0.18000000 0.32083925 0.00000000)
		(-0.16000000 0.31971643 0.00000000)
		(-0.14000000 0.31859362 0.00000000)
		(-0.12000000 0.31747080 0.00000000)
		(-0.10000000 0.31634799 0.00000000)
		(-0.08162011 0.31632241 0.00000000)
		(-0.06324022 0.31368316 0.00000000)
		(-0.04486034 0.30843025 0.00000000)
		(-0.02648045 0.30056367 0.00000000)
		(-0.00810056 0.29008342 0.00000000)
		(0.01027933 0.27698951 0.00000000)
		(0.02865922 0.26128193 0.00000000)
		(0.04703911 0.24296068 0.00000000)
		(0.06541899 0.22202577 0.00000000)
		(0.08379888 0.19847719 0.00000000)
		(0.10055866 0.18280392 0.00000000)
		(0.11731844 0.16982423 0.00000000)
		(0.13407821 0.15964835 0.00000000)
		(0.15083799 0.15236269 0.00000000)
		(0.16759777 0.14802911 0.00000000)
		(0.18435754 0.14668441 0.00000000)
		(0.20111732 0.14834003 0.00000000)
		(0.21787709 0.15298188 0.00000000)
		(0.23463687 0.16057056 0.00000000)
		(0.25139665 0.17104163 0.00000000)
		(0.26815642 0.18430617 0.00000000)
		(0.28491620 0.20025153 0.00000000)
		(0.30167598 0.21874231 0.00000000)
		(0.31843575 0.23962149 0.00000000)
		(0.33519553 0.26271176 0.00000000)
		(0.35195531 0.28781706 0.00000000)
		(0.36871508 0.31472418 0.00000000)
		(0.38547486 0.34320463 0.00000000)
		(0.40223464 0.37301657 0.00000000)
		(0.41899441 0.40390683 0.00000000)
		(0.43575419 0.43561311 0.00000000)
		(0.45251397 0.46786614 0.00000000)
		(0.46927374 0.50039205 0.00000000)
		(0.48603352 0.53291464 0.00000000)
		(0.50279330 0.56515771 0.00000000)
		(0.51955307 0.59684748 0.00000000)
		(0.53631285 0.62771483 0.00000000)
		(0.55307263 0.65749765 0.00000000)
		(0.56983240 0.68594302 0.00000000)
		(0.58659218 0.71280939 0.00000000)
		(0.60335196 0.73786861 0.00000000)
		(0.62011173 0.76090789 0.00000000)
		(0.63687151 0.78173157 0.00000000)
		(0.65363128 0.80016284 0.00000000)
		(0.67039106 0.81604516 0.00000000)
		(0.68715084 0.82924367 0.00000000)
		(0.70391061 0.83964630 0.00000000)
		(0.72067039 0.84716469 0.00000000)
		(0.73743017 0.85173502 0.00000000)
		(0.75418994 0.85331846 0.00000000)
		(0.77094972 0.85190158 0.00000000)
		(0.78770950 0.84749640 0.00000000)
		(0.80446927 0.84014033 0.00000000)
		(0.82122905 0.82989583 0.00000000)
		(0.83798883 0.81684991 0.00000000)
		(0.85474860 0.80111335 0.00000000)
		(0.87150838 0.78281978 0.00000000)
		(0.88826816 0.76212454 0.00000000)
		(0.90502793 0.73920338 0.00000000)
		(0.92178771 0.71425094 0.00000000)
		(0.93854749 0.68747911 0.00000000)
		(0.95530726 0.65911523 0.00000000)
		(0.97206704 0.62940018 0.00000000)
		(0.98882682 0.59858627 0.00000000)
		(1.00558659 0.56693519 0.00000000)
		(1.02234637 0.53471570 0.00000000)
		(1.03910615 0.50220141 0.00000000)
		(1.05586592 0.46966842 0.00000000)
		(1.07262570 0.43739301 0.00000000)
		(1.08938547 0.40564925 0.00000000)
		(1.10614525 0.37470670 0.00000000)
		(1.12290503 0.34482812 0.00000000)
		(1.13966480 0.31626724 0.00000000)
		(1.15642458 0.28926659 0.00000000)
		(1.17318436 0.26405546 0.00000000)
		(1.18994413 0.24084794 0.00000000)
		(1.20670391 0.21984109 0.00000000)
		(1.22346369 0.20121332 0.00000000)
		(1.24022346 0.18512279 0.00000000)
		(1.25698324 0.17170616 0.00000000)
		(1.27374302 0.16107736 0.00000000)
		(1.29050279 0.15332663 0.00000000)
		(1.30726257 0.14851980 0.00000000)
		(1.32402235 0.14669770 0.00000000)
		(1.34078212 0.14787578 0.00000000)
		(1.35754190 0.15204405 0.00000000)
		(1.37430168 0.15916711 0.00000000)
		(1.39106145 0.16918448 0.00000000)
		(1.40782123 0.18201108 0.00000000)
		(1.42458101 0.19753800 0.00000000)
		(1.44134078 0.21563338 0.00000000)
		(1.45810056 0.23614356 0.00000000)
		(1.47486034 0.25889437 0.00000000)
		(1.49162011 0.28369261 0.00000000)
		(1.50837989 0.31032771 0.00000000)
		(1.52513966 0.33857348 0.00000000)
		(1.54189944 0.36819005 0.00000000)
		(1.55865922 0.39892594 0.00000000)
		(1.57541899 0.43052013 0.00000000)
		(1.59217877 0.46270433 0.00000000)
		(1.60893855 0.49520525 0.00000000)
		(1.62569832 0.52774688 0.00000000)
		(1.64245810 0.56005289 0.00000000)
		(1.65921788 0.59184894 0.00000000)
		(1.67597765 0.62286502 0.00000000)
		(1.69273743 0.65283775 0.00000000)
		(1.70949721 0.68151260 0.00000000)
		(1.72625698 0.70864607 0.00000000)
		(1.74301676 0.73400776 0.00000000)
		(1.75977654 0.75738228 0.00000000)
		(1.77653631 0.77857115 0.00000000)
		(1.79329609 0.79739443 0.00000000)
		(1.81005587 0.81369229 0.00000000)
		(1.82681564 0.82732631 0.00000000)
		(1.84357542 0.83818073 0.00000000)
		(1.86033520 0.84616337 0.00000000)
		(1.87709497 0.85120644 0.00000000)
		(1.89385475 0.85326711 0.00000000)
		(1.91061453 0.85232789 0.00000000)
		(1.92737430 0.84839676 0.00000000)
		(1.94413408 0.84150709 0.00000000)
		(1.96089385 0.83171739 0.00000000)
		(1.97765363 0.81911079 0.00000000)
		(1.99441341 0.80379436 0.00000000)
		(2.01117318 0.78589815 0.00000000)
		(2.02793296 0.76557413 0.00000000)
		(2.04469274 0.74299489 0.00000000)
		(2.06145251 0.71835218 0.00000000)
		(2.07821229 0.69185525 0.00000000)
		(2.09497207 0.66372912 0.00000000)
		(2.11173184 0.63421262 0.00000000)
		(2.12849162 0.60355641 0.00000000)
		(2.14525140 0.57202081 0.00000000)
		(2.16201117 0.53987362 0.00000000)
		(2.17877095 0.50738784 0.00000000)
		(2.19553073 0.47483931 0.00000000)
		(2.21229050 0.44250445 0.00000000)
		(2.22905028 0.41065783 0.00000000)
		(2.24581006 0.37956989 0.00000000)
		(2.26256983 0.34950462 0.00000000)
		(2.27932961 0.32071734 0.00000000)
		(2.29608939 0.29345250 0.00000000)
		(2.31284916 0.26794164 0.00000000)
		(2.32960894 0.24440138 0.00000000)
		(2.34636872 0.22303162 0.00000000)
		(2.36312849 0.20401384 0.00000000)
		(2.37988827 0.18750953 0.00000000)
		(2.39664804 0.17365885 0.00000000)
		(2.41340782 0.16257940 0.00000000)
		(2.43016760 0.15436529 0.00000000)
		(2.44692737 0.14908625 0.00000000)
		(2.46368715 0.14678712 0.00000000)
		(2.48044693 0.14748742 0.00000000)
		(2.49720670 0.15118121 0.00000000)
		(2.51396648 0.15783712 0.00000000)