/*--------------------------------*- C++ -*----------------------------------*\\
/*--------------------------------*- C++ -*----------------------------------*\\
| =========                 |                                                 |
| \\\\      /  F ield         | OpenFOAM: The Open Source CFD Toolbox           |
|  \\\\    /   O peration     | Version:  v2012                                 |
|   \\\\  /    A nd           | Website:  www.openfoam.com                      |
|    \\\\/     M anipulation  |                                                 |
\\*---------------------------------------------------------------------------*/
FoamFile
{
    version     2.0;
    format      ascii;
    class       dictionary;
    object      blockMeshDict;
}
// * * * * * * * * * * * * * * * * * * * * * * * * * * * * * * * * * * * * * //

scale   0.01;

xmin -1;
xmax 5;
ymin 0;
ymax 0.5;
zmin 0;
zmax 0.1;

vertices
(
    (-1.00000000 -0.18733430 0.00000000)
    (4.00000000 0.15801004 0.00000000)
    (4.00000000 0.65801004 0.00000000)
    (-1.00000000 0.31266570 0.00000000)
    (-1.00000000 -0.18733430 0.10000000)
    (4.00000000 0.15801004 0.10000000)
    (4.00000000 0.65801004 0.10000000)
    (-1.00000000 0.31266570 0.10000000)
);

blocks
(
    hex (0 1 2 3 4 5 6 7) (200 20 1) simpleGrading (1 1 1)
);

edges
(
	polyLine 0 1
	(
		(-1.00000000 -0.18733430 0.00000000)
		(-0.98000000 -0.18733430 0.00000000)
		(-0.96000000 -0.18733430 0.00000000)
		(-0.94000000 -0.18733430 0.00000000)
		(-0.92000000 -0.18733430 0.00000000)
		(-0.90000000 -0.18733430 0.00000000)
		(-0.88000000 -0.18733430 0.00000000)
		(-0.86000000 -0.18733430 0.00000000)
		(-0.84000000 -0.18733430 0.00000000)
		(-0.82000000 -0.18733430 0.00000000)
		(-0.80000000 -0.18733430 0.00000000)
		(-0.78000000 -0.18733430 0.00000000)
		(-0.76000000 -0.18733430 0.00000000)
		(-0.74000000 -0.18733430 0.00000000)
		(-0.72000000 -0.18733430 0.00000000)
		(-0.70000000 -0.18733430 0.00000000)
		(-0.68000000 -0.18733430 0.00000000)
		(-0.66000000 -0.18733430 0.00000000)
		(-0.64000000 -0.18733430 0.00000000)
		(-0.62000000 -0.18733430 0.00000000)
		(-0.60000000 -0.18733430 0.00000000)
		(-0.58000000 -0.18733430 0.00000000)
		(-0.56000000 -0.18733430 0.00000000)
		(-0.54000000 -0.18733430 0.00000000)
		(-0.52000000 -0.18733430 0.00000000)
		(-0.50000000 -0.18733430 0.00000000)
		(-0.48000000 -0.18733430 0.00000000)
		(-0.46000000 -0.18733430 0.00000000)
		(-0.44000000 -0.18733430 0.00000000)
		(-0.42000000 -0.18733430 0.00000000)
		(-0.40000000 -0.18733430 0.00000000)
		(-0.38000000 -0.18733430 0.00000000)
		(-0.36000000 -0.18733430 0.00000000)
		(-0.34000000 -0.18733430 0.00000000)
		(-0.32000000 -0.18733430 0.00000000)
		(-0.30000000 -0.18733430 0.00000000)
		(-0.28000000 -0.18733430 0.00000000)
		(-0.26000000 -0.18733430 0.00000000)
		(-0.24000000 -0.18733430 0.00000000)
		(-0.22000000 -0.18733430 0.00000000)
		(-0.20000000 -0.18733430 0.00000000)
		(-0.18000000 -0.18733430 0.00000000)
		(-0.16000000 -0.18733430 0.00000000)
		(-0.14000000 -0.18733430 0.00000000)
		(-0.12000000 -0.18733430 0.00000000)
		(-0.10000000 -0.18733430 0.00000000)
		(-0.08162011 -0.18774825 0.00000000)
		(-0.06324022 -0.18899011 0.00000000)
		(-0.04486034 -0.19105987 0.00000000)
		(-0.02648045 -0.19395753 0.00000000)
		(-0.00810056 -0.19768309 0.00000000)
		(0.01027933 -0.20223656 0.00000000)
		(0.02865922 -0.20761793 0.00000000)
		(0.04703911 -0.21382721 0.00000000)
		(0.06541899 -0.22086438 0.00000000)
		(0.08379888 -0.22872947 0.00000000)
		(0.10055866 -0.23451199 0.00000000)
		(0.11731844 -0.23940352 0.00000000)
		(0.13407821 -0.24338546 0.00000000)
		(0.15083799 -0.24644270 0.00000000)
		(0.16759777 -0.24856361 0.00000000)
		(0.18435754 -0.24974013 0.00000000)
		(0.20111732 -0.24996780 0.00000000)
		(0.21787709 -0.24924576 0.00000000)
		(0.23463687 -0.24757673 0.00000000)
		(0.25139665 -0.24496707 0.00000000)
		(0.26815642 -0.24142670 0.00000000)
		(0.28491620 -0.23696905 0.00000000)
		(0.30167598 -0.23161108 0.00000000)
		(0.31843575 -0.22537312 0.00000000)
		(0.33519553 -0.21827890 0.00000000)
		(0.35195531 -0.21035535 0.00000000)
		(0.36871508 -0.20163258 0.00000000)
		(0.38547486 -0.19214374 0.00000000)
		(0.40223464 -0.18192488 0.00000000)
		(0.41899441 -0.17101481 0.00000000)
		(0.43575419 -0.15945500 0.00000000)
		(0.45251397 -0.14728936 0.00000000)
		(0.46927374 -0.13456411 0.00000000)
		(0.48603352 -0.12132761 0.00000000)
		(0.50279330 -0.10763014 0.00000000)
		(0.51955307 -0.09352374 0.00000000)
		(0.53631285 -0.07906201 0.00000000)
		(0.55307263 -0.06429989 0.00000000)
		(0.56983240 -0.04929348 0.00000000)
		(0.58659218 -0.03409978 0.00000000)
		(0.60335196 -0.01877653 0.00000000)
		(0.62011173 -0.00338193 0.00000000)
		(0.63687151 0.01202551 0.00000000)
		(0.65363128 0.02738726 0.00000000)
		(0.67039106 0.04264496 0.00000000)
		(0.68715084 0.05774064 0.00000000)
		(0.70391061 0.07261694 0.00000000)
		(0.72067039 0.08721733 0.00000000)
		(0.73743017 0.10148636 0.00000000)
		(0.75418994 0.11536981 0.00000000)
		(0.77094972 0.12881492 0.00000000)
		(0.78770950 0.14177062 0.00000000)
		(0.80446927 0.15418768 0.00000000)
		(0.82122905 0.16601893 0.00000000)
		(0.83798883 0.17721940 0.00000000)
		(0.85474860 0.18774656 0.00000000)
		(0.87150838 0.19756040 0.00000000)
		(0.88826816 0.20662364 0.00000000)
		(0.90502793 0.21490183 0.00000000)
		(0.92178771 0.22236354 0.00000000)
		(0.93854749 0.22898040 0.00000000)
		(0.95530726 0.23472729 0.00000000)
		(0.97206704 0.23958236 0.00000000)
		(0.98882682 0.24352717 0.00000000)
		(1.00558659 0.24654673 0.00000000)
		(1.02234637 0.24862957 0.00000000)
		(1.03910615 0.24976777 0.00000000)
		(1.05586592 0.24995702 0.00000000)
		(1.07262570 0.24919659 0.00000000)
		(1.08938547 0.24748937 0.00000000)
		(1.10614525 0.24484184 0.00000000)
		(1.12290503 0.24126408 0.00000000)
		(1.13966480 0.23676966 0.00000000)
		(1.15642458 0.23137567 0.00000000)
		(1.17318436 0.22510260 0.00000000)
		(1.18994413 0.21797428 0.00000000)
		(1.20670391 0.21001779 0.00000000)
		(1.22346369 0.20126338 0.00000000)
		(1.24022346 0.19174429 0.00000000)
		(1.25698324 0.18149669 0.00000000)
		(1.27374302 0.17055952 0.00000000)
		(1.29050279 0.15897433 0.00000000)
		(1.30726257 0.14678514 0.00000000)
		(1.32402235 0.13403826 0.00000000)
		(1.34078212 0.12078212 0.00000000)
		(1.35754190 0.10706709 0.00000000)
		(1.37430168 0.09294527 0.00000000)
		(1.39106145 0.07847031 0.00000000)
		(1.40782123 0.06369722 0.00000000)
		(1.42458101 0.04868212 0.00000000)
		(1.44134078 0.03348206 0.00000000)
		(1.45810056 0.01815478 0.00000000)
		(1.47486034 0.00275853 0.00000000)
		(1.49162011 -0.01264820 0.00000000)
		(1.50837989 -0.02800687 0.00000000)
		(1.52513966 -0.04325914 0.00000000)
		(1.54189944 -0.05834705 0.00000000)
		(1.55865922 -0.07321328 0.00000000)
		(1.57541899 -0.08780134 0.00000000)
		(1.59217877 -0.10205582 0.00000000)
		(1.60893855 -0.11592254 0.00000000)
		(1.62569832 -0.12934884 0.00000000)
		(1.64245810 -0.14228369 0.00000000)
		(1.65921788 -0.15467795 0.00000000)
		(1.67597765 -0.16648454 0.00000000)
		(1.69273743 -0.17765859 0.00000000)
		(1.70949721 -0.18815765 0.00000000)
		(1.72625698 -0.19794183 0.00000000)
		(1.74301676 -0.20697396 0.00000000)
		(1.75977654 -0.21521972 0.00000000)
		(1.77653631 -0.22264778 0.00000000)
		(1.79329609 -0.22922992 0.00000000)
		(1.81005587 -0.23494113 0.00000000)
		(1.82681564 -0.23975971 0.00000000)
		(1.84357542 -0.24366736 0.00000000)
		(1.86033520 -0.24664923 0.00000000)
		(1.87709497 -0.24869399 0.00000000)
		(1.89385475 -0.24979386 0.00000000)
		(1.91061453 -0.24994468 0.00000000)
		(1.92737430 -0.24914587 0.00000000)
		(1.94413408 -0.24740046 0.00000000)
		(1.96089385 -0.24471509 0.00000000)
		(1.97765363 -0.24109996 0.00000000)
		(1.99441341 -0.23656880 0.00000000)
		(2.01117318 -0.23113882 0.00000000)
		(2.02793296 -0.22483067 0.00000000)
		(2.04469274 -0.21766830 0.00000000)
		(2.06145251 -0.20967894 0.00000000)
		(2.07821229 -0.20089292 0.00000000)
		(2.09497207 -0.19134364 0.00000000)
		(2.11173184 -0.18106737 0.00000000)
		(2.12849162 -0.17010317 0.00000000)
		(2.14525140 -0.15849268 0.00000000)
		(2.16201117 -0.14628002 0.00000000)
		(2.17877095 -0.13351158 0.00000000)
		(2.19553073 -0.12023589 0.00000000)
		(2.21229050 -0.10650338 0.00000000)
		(2.22905028 -0.09236622 0.00000000)
		(2.24581006 -0.07787813 0.00000000)
		(2.26256983 -0.06309415 0.00000000)
		(2.27932961 -0.04807045 0.00000000)
		(2.29608939 -0.03286412 0.00000000)
		(2.31284916 -0.01753292 0.00000000)
		(2.32960894 -0.00213511 0.00000000)
		(2.34636872 0.01327081 0.00000000)
		(2.36312849 0.02862631 0.00000000)
		(2.37988827 0.04387305 0.00000000)
		(2.39664804 0.05895310 0.00000000)
		(2.41340782 0.07380916 0.00000000)
		(2.43016760 0.08838480 0.00000000)
		(2.44692737 0.10262463 0.00000000)
		(2.46368715 0.11647456 0.00000000)
		(2.48044693 0.12988195 0.00000000)
		(2.49720670 0.14279587 0.00000000)
		(2.51396648 0.15516727 0.00000000)
		(2.53072626 0.16694912 0.00000000)
		(2.54748603 0.17809667 0.00000000)
		(2.56424581 0.18856757 0.00000000)
		(2.58100559 0.19832203 0.00000000)
		(2.59776536 0.20732300 0.00000000)
		(2.61452514 0.21553626 0.00000000)
		(2.63128492 0.22293063 0.00000000)
		(2.64804469 0.22947800 0.00000000)
		(2.66480447 0.23515350 0.00000000)
		(2.68156425 0.23993557 0.00000000)
		(2.69832402 0.24380604 0.00000000)
		(2.71508380 0.24675019 0.00000000)
		(2.73184358 0.24875685 0.00000000)
		(2.74860335 0.24981840 0.00000000)
		(2.76536313 0.24993079 0.00000000)
		(2.78212291 0.24909361 0.00000000)
		(2.79888268 0.24731002 0.00000000)
		(2.81564246 0.24458682 0.00000000)
		(2.83240223 0.24093434 0.00000000)
		(2.84916201 0.23636646 0.00000000)
		(2.86592179 0.23090054 0.00000000)
		(2.88268156 0.22455735 0.00000000)
		(2.89944134 0.21736098 0.00000000)
		(2.91620112 0.20933877 0.00000000)
		(2.93296089 0.20052121 0.00000000)
		(2.95166480 0.19244409 0.00000000)
		(2.97036872 0.18521719 0.00000000)
		(2.98907263 0.17884051 0.00000000)
		(3.00777654 0.17331406 0.00000000)
		(3.02648045 0.16863783 0.00000000)
		(3.04518436 0.16481183 0.00000000)
		(3.06388827 0.16183604 0.00000000)
		(3.08259218 0.15971048 0.00000000)
		(3.10129609 0.15843515 0.00000000)
		(3.12000000 0.15801004 0.00000000)
		(3.14000000 0.15801004 0.00000000)
		(3.16000000 0.15801004 0.00000000)
		(3.18000000 0.15801004 0.00000000)
		(3.20000000 0.15801004 0.00000000)
		(3.22000000 0.15801004 0.00000000)
		(3.24000000 0.15801004 0.00000000)
		(3.26000000 0.15801004 0.00000000)
		(3.28000000 0.15801004 0.00000000)
		(3.30000000 0.15801004 0.00000000)
		(3.32000000 0.15801004 0.00000000)
		(3.34000000 0.15801004 0.00000000)
		(3.36000000 0.15801004 0.00000000)
		(3.38000000 0.15801004 0.00000000)
		(3.40000000 0.15801004 0.00000000)
		(3.42000000 0.15801004 0.00000000)
		(3.44000000 0.15801004 0.00000000)
		(3.46000000 0.15801004 0.00000000)
		(3.48000000 0.15801004 0.00000000)
		(3.50000000 0.15801004 0.00000000)
		(3.52000000 0.15801004 0.00000000)
		(3.54000000 0.15801004 0.00000000)
		(3.56000000 0.15801004 0.00000000)
		(3.58000000 0.15801004 0.00000000)
		(3.60000000 0.15801004 0.00000000)
		(3.62000000 0.15801004 0.00000000)
		(3.64000000 0.15801004 0.00000000)
		(3.66000000 0.15801004 0.00000000)
		(3.68000000 0.15801004 0.00000000)
		(3.70000000 0.15801004 0.00000000)
		(3.72000000 0.15801004 0.00000000)
		(3.74000000 0.15801004 0.00000000)
		(3.76000000 0.15801004 0.00000000)
		(3.78000000 0.15801004 0.00000000)
		(3.80000000 0.15801004 0.00000000)
		(3.82000000 0.15801004 0.00000000)
		(3.84000000 0.15801004 0.00000000)
		(3.86000000 0.15801004 0.00000000)
		(3.88000000 0.15801004 0.00000000)
		(3.90000000 0.15801004 0.00000000)
		(3.92000000 0.15801004 0.00000000)
		(3.94000000 0.15801004 0.00000000)
		(3.96000000 0.15801004 0.00000000)
		(3.98000000 0.15801004 0.00000000)
		(4.00000000 0.15801004 0.00000000)
	)
	polyLine 4 5
	(
		(-1.00000000 -0.18733430 0.10000000)
		(-0.98000000 -0.18733430 0.10000000)
		(-0.96000000 -0.18733430 0.10000000)
		(-0.94000000 -0.18733430 0.10000000)
		(-0.92000000 -0.18733430 0.10000000)
		(-0.90000000 -0.18733430 0.10000000)
		(-0.88000000 -0.18733430 0.10000000)
		(-0.86000000 -0.18733430 0.10000000)
		(-0.84000000 -0.18733430 0.10000000)
		(-0.82000000 -0.18733430 0.10000000)
		(-0.80000000 -0.18733430 0.10000000)
		(-0.78000000 -0.18733430 0.10000000)
		(-0.76000000 -0.18733430 0.10000000)
		(-0.74000000 -0.18733430 0.10000000)
		(-0.72000000 -0.18733430 0.10000000)
		(-0.70000000 -0.18733430 0.10000000)
		(-0.68000000 -0.18733430 0.10000000)
		(-0.66000000 -0.18733430 0.10000000)
		(-0.64000000 -0.18733430 0.10000000)
		(-0.62000000 -0.18733430 0.10000000)
		(-0.60000000 -0.18733430 0.10000000)
		(-0.58000000 -0.18733430 0.10000000)
		(-0.56000000 -0.18733430 0.10000000)
		(-0.54000000 -0.18733430 0.10000000)
		(-0.52000000 -0.18733430 0.10000000)
		(-0.50000000 -0.18733430 0.10000000)
		(-0.48000000 -0.18733430 0.10000000)
		(-0.46000000 -0.18733430 0.10000000)
		(-0.44000000 -0.18733430 0.10000000)
		(-0.42000000 -0.18733430 0.10000000)
		(-0.40000000 -0.18733430 0.10000000)
		(-0.38000000 -0.18733430 0.10000000)
		(-0.36000000 -0.18733430 0.10000000)
		(-0.34000000 -0.18733430 0.10000000)
		(-0.32000000 -0.18733430 0.10000000)
		(-0.30000000 -0.18733430 0.10000000)
		(-0.28000000 -0.18733430 0.10000000)
		(-0.26000000 -0.18733430 0.10000000)
		(-0.24000000 -0.18733430 0.10000000)
		(-0.22000000 -0.18733430 0.10000000)
		(-0.20000000 -0.18733430 0.10000000)
		(-0.18000000 -0.18733430 0.10000000)
		(-0.16000000 -0.18733430 0.10000000)
		(-0.14000000 -0.18733430 0.10000000)
		(-0.12000000 -0.18733430 0.10000000)
		(-0.10000000 -0.18733430 0.10000000)
		(-0.08162011 -0.18774825 0.10000000)
		(-0.06324022 -0.18899011 0.10000000)
		(-0.04486034 -0.19105987 0.10000000)
		(-0.02648045 -0.19395753 0.10000000)
		(-0.00810056 -0.19768309 0.10000000)
		(0.01027933 -0.20223656 0.10000000)
		(0.02865922 -0.20761793 0.10000000)
		(0.04703911 -0.21382721 0.10000000)
		(0.06541899 -0.22086438 0.10000000)
		(0.08379888 -0.22872947 0.10000000)
		(0.10055866 -0.23451199 0.10000000)
		(0.11731844 -0.23940352 0.10000000)
		(0.13407821 -0.24338546 0.10000000)
		(0.15083799 -0.24644270 0.10000000)
		(0.16759777 -0.24856361 0.10000000)
		(0.18435754 -0.24974013 0.10000000)
		(0.20111732 -0.24996780 0.10000000)
		(0.21787709 -0.24924576 0.10000000)
		(0.23463687 -0.24757673 0.10000000)
		(0.25139665 -0.24496707 0.10000000)
		(0.26815642 -0.24142670 0.10000000)
		(0.28491620 -0.23696905 0.10000000)
		(0.30167598 -0.23161108 0.10000000)
		(0.31843575 -0.22537312 0.10000000)
		(0.33519553 -0.21827890 0.10000000)
		(0.35195531 -0.21035535 0.10000000)
		(0.36871508 -0.20163258 0.10000000)
		(0.38547486 -0.19214374 0.10000000)
		(0.40223464 -0.18192488 0.10000000)
		(0.41899441 -0.17101481 0.10000000)
		(0.43575419 -0.15945500 0.10000000)
		(0.45251397 -0.14728936 0.10000000)
		(0.46927374 -0.13456411 0.10000000)
		(0.48603352 -0.12132761 0.10000000)
		(0.50279330 -0.10763014 0.10000000)
		(0.51955307 -0.09352374 0.10000000)
		(0.53631285 -0.07906201 0.10000000)
		(0.55307263 -0.06429989 0.10000000)
		(0.56983240 -0.04929348 0.10000000)
		(0.58659218 -0.03409978 0.10000000)
		(0.60335196 -0.01877653 0.10000000)
		(0.62011173 -0.00338193 0.10000000)
		(0.63687151 0.01202551 0.10000000)
		(0.65363128 0.02738726 0.10000000)
		(0.67039106 0.04264496 0.10000000)
		(0.68715084 0.05774064 0.10000000)
		(0.70391061 0.07261694 0.10000000)
		(0.72067039 0.08721733 0.10000000)
		(0.73743017 0.10148636 0.10000000)
		(0.75418994 0.11536981 0.10000000)
		(0.77094972 0.12881492 0.10000000)
		(0.78770950 0.14177062 0.10000000)
		(0.80446927 0.15418768 0.10000000)
		(0.82122905 0.16601893 0.10000000)
		(0.83798883 0.17721940 0.10000000)
		(0.85474860 0.18774656 0.10000000)
		(0.87150838 0.19756040 0.10000000)
		(0.88826816 0.20662364 0.10000000)
		(0.90502793 0.21490183 0.10000000)
		(0.92178771 0.22236354 0.10000000)
		(0.93854749 0.22898040 0.10000000)
		(0.95530726 0.23472729 0.10000000)
		(0.97206704 0.23958236 0.10000000)
		(0.98882682 0.24352717 0.10000000)
		(1.00558659 0.24654673 0.10000000)
		(1.02234637 0.24862957 0.10000000)
		(1.03910615 0.24976777 0.10000000)
		(1.05586592 0.24995702 0.10000000)
		(1.07262570 0.24919659 0.10000000)
		(1.08938547 0.24748937 0.10000000)
		(1.10614525 0.24484184 0.10000000)
		(1.12290503 0.24126408 0.10000000)
		(1.13966480 0.23676966 0.10000000)
		(1.15642458 0.23137567 0.10000000)
		(1.17318436 0.22510260 0.10000000)
		(1.18994413 0.21797428 0.10000000)
		(1.20670391 0.21001779 0.10000000)
		(1.22346369 0.20126338 0.10000000)
		(1.24022346 0.19174429 0.10000000)
		(1.25698324 0.18149669 0.10000000)
		(1.27374302 0.17055952 0.10000000)
		(1.29050279 0.15897433 0.10000000)
		(1.30726257 0.14678514 0.10000000)
		(1.32402235 0.13403826 0.10000000)
		(1.34078212 0.12078212 0.10000000)
		(1.35754190 0.10706709 0.10000000)
		(1.37430168 0.09294527 0.10000000)
		(1.39106145 0.07847031 0.10000000)
		(1.40782123 0.06369722 0.10000000)
		(1.42458101 0.04868212 0.10000000)
		(1.44134078 0.03348206 0.10000000)
		(1.45810056 0.01815478 0.10000000)
		(1.47486034 0.00275853 0.10000000)
		(1.49162011 -0.01264820 0.10000000)
		(1.50837989 -0.02800687 0.10000000)
		(1.52513966 -0.04325914 0.10000000)
		(1.54189944 -0.05834705 0.10000000)
		(1.55865922 -0.07321328 0.10000000)
		(1.57541899 -0.08780134 0.10000000)
		(1.59217877 -0.10205582 0.10000000)
		(1.60893855 -0.11592254 0.10000000)
		(1.62569832 -0.12934884 0.10000000)
		(1.64245810 -0.14228369 0.10000000)
		(1.65921788 -0.15467795 0.10000000)
		(1.67597765 -0.16648454 0.10000000)
		(1.69273743 -0.17765859 0.10000000)
		(1.70949721 -0.18815765 0.10000000)
		(1.72625698 -0.19794183 0.10000000)
		(1.74301676 -0.20697396 0.10000000)
		(1.75977654 -0.21521972 0.10000000)
		(1.77653631 -0.22264778 0.10000000)
		(1.79329609 -0.22922992 0.10000000)
		(1.81005587 -0.23494113 0.10000000)
		(1.82681564 -0.23975971 0.10000000)
		(1.84357542 -0.24366736 0.10000000)
		(1.86033520 -0.24664923 0.10000000)
		(1.87709497 -0.24869399 0.10000000)
		(1.89385475 -0.24979386 0.10000000)
		(1.91061453 -0.24994468 0.10000000)
		(1.92737430 -0.24914587 0.10000000)
		(1.94413408 -0.24740046 0.10000000)
		(1.96089385 -0.24471509 0.10000000)
		(1.97765363 -0.24109996 0.10000000)
		(1.99441341 -0.23656880 0.10000000)
		(2.01117318 -0.23113882 0.10000000)
		(2.02793296 -0.22483067 0.10000000)
		(2.04469274 -0.21766830 0.10000000)
		(2.06145251 -0.20967894 0.10000000)
		(2.07821229 -0.20089292 0.10000000)
		(2.09497207 -0.19134364 0.10000000)
		(2.11173184 -0.18106737 0.10000000)
		(2.12849162 -0.17010317 0.10000000)
		(2.14525140 -0.15849268 0.10000000)
		(2.16201117 -0.14628002 0.10000000)
		(2.17877095 -0.13351158 0.10000000)
		(2.19553073 -0.12023589 0.10000000)
		(2.21229050 -0.10650338 0.10000000)
		(2.22905028 -0.09236622 0.10000000)
		(2.24581006 -0.07787813 0.10000000)
		(2.26256983 -0.06309415 0.10000000)
		(2.27932961 -0.04807045 0.10000000)
		(2.29608939 -0.03286412 0.10000000)
		(2.31284916 -0.01753292 0.10000000)
		(2.32960894 -0.00213511 0.10000000)
		(2.34636872 0.01327081 0.10000000)
		(2.36312849 0.02862631 0.10000000)
		(2.37988827 0.04387305 0.10000000)
		(2.39664804 0.05895310 0.10000000)
		(2.41340782 0.07380916 0.10000000)
		(2.43016760 0.08838480 0.10000000)
		(2.44692737 0.10262463 0.10000000)
		(2.46368715 0.11647456 0.10000000)
		(2.48044693 0.12988195 0.10000000)
		(2.49720670 0.14279587 0.10000000)
		(2.51396648 0.15516727 0.10000000)
		(2.53072626 0.16694912 0.10000000)
		(2.54748603 0.17809667 0.10000000)
		(2.56424581 0.18856757 0.10000000)
		(2.58100559 0.19832203 0.10000000)
		(2.59776536 0.20732300 0.10000000)
		(2.61452514 0.21553626 0.10000000)
		(2.63128492 0.22293063 0.10000000)
		(2.64804469 0.22947800 0.10000000)
		(2.66480447 0.23515350 0.10000000)
		(2.68156425 0.23993557 0.10000000)
		(2.69832402 0.24380604 0.10000000)
		(2.71508380 0.24675019 0.10000000)
		(2.73184358 0.24875685 0.10000000)
		(2.74860335 0.24981840 0.10000000)
		(2.76536313 0.24993079 0.10000000)
		(2.78212291 0.24909361 0.10000000)
		(2.79888268 0.24731002 0.10000000)
		(2.81564246 0.24458682 0.10000000)
		(2.83240223 0.24093434 0.10000000)
		(2.84916201 0.23636646 0.10000000)
		(2.86592179 0.23090054 0.10000000)
		(2.88268156 0.22455735 0.10000000)
		(2.89944134 0.21736098 0.10000000)
		(2.91620112 0.20933877 0.10000000)
		(2.93296089 0.20052121 0.10000000)
		(2.95166480 0.19244409 0.10000000)
		(2.97036872 0.18521719 0.10000000)
		(2.98907263 0.17884051 0.10000000)
		(3.00777654 0.17331406 0.10000000)
		(3.02648045 0.16863783 0.10000000)
		(3.04518436 0.16481183 0.10000000)
		(3.06388827 0.16183604 0.10000000)
		(3.08259218 0.15971048 0.10000000)
		(3.10129609 0.15843515 0.10000000)
		(3.12000000 0.15801004 0.10000000)
		(3.14000000 0.15801004 0.10000000)
		(3.16000000 0.15801004 0.10000000)
		(3.18000000 0.15801004 0.10000000)
		(3.20000000 0.15801004 0.10000000)
		(3.22000000 0.15801004 0.10000000)
		(3.24000000 0.15801004 0.10000000)
		(3.26000000 0.15801004 0.10000000)
		(3.28000000 0.15801004 0.10000000)
		(3.30000000 0.15801004 0.10000000)
		(3.32000000 0.15801004 0.10000000)
		(3.34000000 0.15801004 0.10000000)
		(3.36000000 0.15801004 0.10000000)
		(3.38000000 0.15801004 0.10000000)
		(3.40000000 0.15801004 0.10000000)
		(3.42000000 0.15801004 0.10000000)
		(3.44000000 0.15801004 0.10000000)
		(3.46000000 0.15801004 0.10000000)
		(3.48000000 0.15801004 0.10000000)
		(3.50000000 0.15801004 0.10000000)
		(3.52000000 0.15801004 0.10000000)
		(3.54000000 0.15801004 0.10000000)
		(3.56000000 0.15801004 0.10000000)
		(3.58000000 0.15801004 0.10000000)
		(3.60000000 0.15801004 0.10000000)
		(3.62000000 0.15801004 0.10000000)
		(3.64000000 0.15801004 0.10000000)
		(3.66000000 0.15801004 0.10000000)
		(3.68000000 0.15801004 0.10000000)
		(3.70000000 0.15801004 0.10000000)
		(3.72000000 0.15801004 0.10000000)
		(3.74000000 0.15801004 0.10000000)
		(3.76000000 0.15801004 0.10000000)
		(3.78000000 0.15801004 0.10000000)
		(3.80000000 0.15801004 0.10000000)
		(3.82000000 0.15801004 0.10000000)
		(3.84000000 0.15801004 0.10000000)
		(3.86000000 0.15801004 0.10000000)
		(3.88000000 0.15801004 0.10000000)
		(3.90000000 0.15801004 0.10000000)
		(3.92000000 0.15801004 0.10000000)
		(3.94000000 0.15801004 0.10000000)
		(3.96000000 0.15801004 0.10000000)
		(3.98000000 0.15801004 0.10000000)
		(4.00000000 0.15801004 0.10000000)
	)
	polyLine 3 2
	(
		(-1.00000000 0.31266570 0.00000000)
		(-0.98000000 0.30956465 0.00000000)
		(-0.96000000 0.30646360 0.00000000)
		(-0.94000000 0.30336256 0.00000000)
		(-0.92000000 0.30026151 0.00000000)
		(-0.90000000 0.29716046 0.00000000)
		(-0.88000000 0.29405941 0.00000000)
		(-0.86000000 0.29095837 0.00000000)
		(-0.84000000 0.28785732 0.00000000)
		(-0.82000000 0.28475627 0.00000000)
		(-0.80000000 0.28165523 0.00000000)
		(-0.78000000 0.27855418 0.00000000)
		(-0.76000000 0.27545313 0.00000000)
		(-0.74000000 0.27235208 0.00000000)
		(-0.72000000 0.26925104 0.00000000)
		(-0.70000000 0.26614999 0.00000000)
		(-0.68000000 0.26304894 0.00000000)
		(-0.66000000 0.25994790 0.00000000)
		(-0.64000000 0.25684685 0.00000000)
		(-0.62000000 0.25374580 0.00000000)
		(-0.60000000 0.25064476 0.00000000)
		(-0.58000000 0.24754371 0.00000000)
		(-0.56000000 0.24444266 0.00000000)
		(-0.54000000 0.24134161 0.00000000)
		(-0.52000000 0.23824057 0.00000000)
		(-0.50000000 0.23513952 0.00000000)
		(-0.48000000 0.23203847 0.00000000)
		(-0.46000000 0.22893743 0.00000000)
		(-0.44000000 0.22583638 0.00000000)
		(-0.42000000 0.22273533 0.00000000)
		(-0.40000000 0.21963428 0.00000000)
		(-0.38000000 0.21653324 0.00000000)
		(-0.36000000 0.21343219 0.00000000)
		(-0.34000000 0.21033114 0.00000000)
		(-0.32000000 0.20723010 0.00000000)
		(-0.30000000 0.20412905 0.00000000)
		(-0.28000000 0.20102800 0.00000000)
		(-0.26000000 0.19792696 0.00000000)
		(-0.24000000 0.19482591 0.00000000)
		(-0.22000000 0.19172486 0.00000000)
		(-0.20000000 0.18862381 0.00000000)
		(-0.18000000 0.18552277 0.00000000)
		(-0.16000000 0.18242172 0.00000000)
		(-0.14000000 0.17932067 0.00000000)
		(-0.12000000 0.17621963 0.00000000)
		(-0.10000000 0.17311858 0.00000000)
		(-0.08162011 0.17145335 0.00000000)
		(-0.06324022 0.16821648 0.00000000)
		(-0.04486034 0.16340797 0.00000000)
		(-0.02648045 0.15702783 0.00000000)
		(-0.00810056 0.14907605 0.00000000)
		(0.01027933 0.13955264 0.00000000)
		(0.02865922 0.12845759 0.00000000)
		(0.04703911 0.11579091 0.00000000)
		(0.06541899 0.10155259 0.00000000)
		(0.08379888 0.08574263 0.00000000)
		(0.10055866 0.07526976 0.00000000)
		(0.11731844 0.06641060 0.00000000)
		(0.13407821 0.05919881 0.00000000)
		(0.15083799 0.05366177 0.00000000)
		(0.16759777 0.04982054 0.00000000)
		(0.18435754 0.04768971 0.00000000)
		(0.20111732 0.04727737 0.00000000)
		(0.21787709 0.04858509 0.00000000)
		(0.23463687 0.05160789 0.00000000)
		(0.25139665 0.05633431 0.00000000)
		(0.26815642 0.06274637 0.00000000)
		(0.28491620 0.07081972 0.00000000)
		(0.30167598 0.08052368 0.00000000)
		(0.31843575 0.09182138 0.00000000)
		(0.33519553 0.10466990 0.00000000)
		(0.35195531 0.11902043 0.00000000)
		(0.36871508 0.13481844 0.00000000)
		(0.38547486 0.15200390 0.00000000)
		(0.40223464 0.17051153 0.00000000)
		(0.41899441 0.19027101 0.00000000)
		(0.43575419 0.21120726 0.00000000)
		(0.45251397 0.23324074 0.00000000)
		(0.46927374 0.25628774 0.00000000)
		(0.48603352 0.28026068 0.00000000)
		(0.50279330 0.30506850 0.00000000)
		(0.51955307 0.33061693 0.00000000)
		(0.53631285 0.35680892 0.00000000)
		(0.55307263 0.38354493 0.00000000)
		(0.56983240 0.41072340 0.00000000)
		(0.58659218 0.43824107 0.00000000)
		(0.60335196 0.46599338 0.00000000)
		(0.62011173 0.49387490 0.00000000)
		(0.63687151 0.52177968 0.00000000)
		(0.65363128 0.54960172 0.00000000)
		(0.67039106 0.57723530 0.00000000)
		(0.68715084 0.60457544 0.00000000)
		(0.70391061 0.63151826 0.00000000)
		(0.72067039 0.65796139 0.00000000)
		(0.73743017 0.68380437 0.00000000)
		(0.75418994 0.70894900 0.00000000)
		(0.77094972 0.73329977 0.00000000)
		(0.78770950 0.75676414 0.00000000)
		(0.80446927 0.77925297 0.00000000)
		(0.82122905 0.80068082 0.00000000)
		(0.83798883 0.82096628 0.00000000)
		(0.85474860 0.84003226 0.00000000)
		(0.87150838 0.85780634 0.00000000)
		(0.88826816 0.87422098 0.00000000)
		(0.90502793 0.88921382 0.00000000)
		(0.92178771 0.90272789 0.00000000)
		(0.93854749 0.91471185 0.00000000)
		(0.95530726 0.92512017 0.00000000)
		(0.97206704 0.93391330 0.00000000)
		(0.98882682 0.94105784 0.00000000)
		(1.00558659 0.94652664 0.00000000)
		(1.02234637 0.95029892 0.00000000)
		(1.03910615 0.95236035 0.00000000)
		(1.05586592 0.95270310 0.00000000)
		(1.07262570 0.95132587 0.00000000)
		(1.08938547 0.94823388 0.00000000)
		(1.10614525 0.94343889 0.00000000)
		(1.12290503 0.93695911 0.00000000)
		(1.13966480 0.92881916 0.00000000)
		(1.15642458 0.91904997 0.00000000)
		(1.17318436 0.90768866 0.00000000)
		(1.18994413 0.89477840 0.00000000)
		(1.20670391 0.88036822 0.00000000)
		(1.22346369 0.86451289 0.00000000)
		(1.24022346 0.84727264 0.00000000)
		(1.25698324 0.82871297 0.00000000)
		(1.27374302 0.80890440 0.00000000)
		(1.29050279 0.78792219 0.00000000)
		(1.30726257 0.76584606 0.00000000)
		(1.32402235 0.74275989 0.00000000)
		(1.34078212 0.71875138 0.00000000)
		(1.35754190 0.69391175 0.00000000)
		(1.37430168 0.66833538 0.00000000)
		(1.39106145 0.64211945 0.00000000)
		(1.40782123 0.61536355 0.00000000)
		(1.42458101 0.58816934 0.00000000)
		(1.44134078 0.56064015 0.00000000)
		(1.45810056 0.53288056 0.00000000)
		(1.47486034 0.50499605 0.00000000)
		(1.49162011 0.47709255 0.00000000)
		(1.50837989 0.44927609 0.00000000)
		(1.52513966 0.42165234 0.00000000)
		(1.54189944 0.39432627 0.00000000)
		(1.55865922 0.36740169 0.00000000)
		(1.57541899 0.34098090 0.00000000)
		(1.59217877 0.31516429 0.00000000)
		(1.60893855 0.29004993 0.00000000)
		(1.62569832 0.26573324 0.00000000)
		(1.64245810 0.24230663 0.00000000)
		(1.65921788 0.21985908 0.00000000)
		(1.67597765 0.19847589 0.00000000)
		(1.69273743 0.17823830 0.00000000)
		(1.70949721 0.15922321 0.00000000)
		(1.72625698 0.14150284 0.00000000)
		(1.74301676 0.12514454 0.00000000)
		(1.75977654 0.11021045 0.00000000)
		(1.77653631 0.09675732 0.00000000)
		(1.79329609 0.08483625 0.00000000)
		(1.81005587 0.07449254 0.00000000)
		(1.82681564 0.06576549 0.00000000)
		(1.84357542 0.05868825 0.00000000)
		(1.86033520 0.05328772 0.00000000)
		(1.87709497 0.04958441 0.00000000)
		(1.89385475 0.04759240 0.00000000)
		(1.91061453 0.04731924 0.00000000)
		(1.92737430 0.04876599 0.00000000)
		(1.94413408 0.05192714 0.00000000)
		(1.96089385 0.05679068 0.00000000)
		(1.97765363 0.06333814 0.00000000)
		(1.99441341 0.07154463 0.00000000)
		(2.01117318 0.08137898 0.00000000)
		(2.02793296 0.09280383 0.00000000)
		(2.04469274 0.10577576 0.00000000)
		(2.06145251 0.12024550 0.00000000)
		(2.07821229 0.13615806 0.00000000)
		(2.09497207 0.15345299 0.00000000)
		(2.11173184 0.17206457 0.00000000)
		(2.12849162 0.19192211 0.00000000)
		(2.14525140 0.21295014 0.00000000)
		(2.16201117 0.23506879 0.00000000)
		(2.17877095 0.25819400 0.00000000)
		(2.19553073 0.28223792 0.00000000)
		(2.21229050 0.30710920 0.00000000)
		(2.22905028 0.33271334 0.00000000)
		(2.24581006 0.35895307 0.00000000)
		(2.26256983 0.38572869 0.00000000)
		(2.27932961 0.41293846 0.00000000)
		(2.29608939 0.44047901 0.00000000)
		(2.31284916 0.46824570 0.00000000)
		(2.32960894 0.49613304 0.00000000)
		(2.34636872 0.52403507 0.00000000)
		(2.36312849 0.55184579 0.00000000)
		(2.37988827 0.57945952 0.00000000)
		(2.39664804 0.60677136 0.00000000)
		(2.41340782 0.63367753 0.00000000)
		(2.43016760 0.66007582 0.00000000)
		(2.44692737 0.68586591 0.00000000)
		(2.46368715 0.71094984 0.00000000)
		(2.48044693 0.73523229 0.00000000)
		(2.49720670 0.75862100 0.00000000)
		(2.51396648 0.78102712 0.00000000)