/*--------------------------------*- C++ -*----------------------------------*\\
/*--------------------------------*- C++ -*----------------------------------*\\
| =========                 |                                                 |
| \\\\      /  F ield         | OpenFOAM: The Open Source CFD Toolbox           |
|  \\\\    /   O peration     | Version:  v2012                                 |
|   \\\\  /    A nd           | Website:  www.openfoam.com                      |
|    \\\\/     M anipulation  |                                                 |
\\*---------------------------------------------------------------------------*/
FoamFile
{
    version     2.0;
    format      ascii;
    class       dictionary;
    object      blockMeshDict;
}
// * * * * * * * * * * * * * * * * * * * * * * * * * * * * * * * * * * * * * //

scale   0.01;

xmin -1;
xmax 5;
ymin 0;
ymax 0.5;
zmin 0;
zmax 0.1;

vertices
(
    (-1.00000000 -0.06514646 0.00000000)
    (4.00000000 0.20001852 0.00000000)
    (4.00000000 0.70001852 0.00000000)
    (-1.00000000 0.43485354 0.00000000)
    (-1.00000000 -0.06514646 0.10000000)
    (4.00000000 0.20001852 0.10000000)
    (4.00000000 0.70001852 0.10000000)
    (-1.00000000 0.43485354 0.10000000)
);

blocks
(
    hex (0 1 2 3 4 5 6 7) (200 20 1) simpleGrading (1 1 1)
);

edges
(
	polyLine 0 1
	(
		(-1.00000000 -0.06514646 0.00000000)
		(-0.98000000 -0.06514646 0.00000000)
		(-0.96000000 -0.06514646 0.00000000)
		(-0.94000000 -0.06514646 0.00000000)
		(-0.92000000 -0.06514646 0.00000000)
		(-0.90000000 -0.06514646 0.00000000)
		(-0.88000000 -0.06514646 0.00000000)
		(-0.86000000 -0.06514646 0.00000000)
		(-0.84000000 -0.06514646 0.00000000)
		(-0.82000000 -0.06514646 0.00000000)
		(-0.80000000 -0.06514646 0.00000000)
		(-0.78000000 -0.06514646 0.00000000)
		(-0.76000000 -0.06514646 0.00000000)
		(-0.74000000 -0.06514646 0.00000000)
		(-0.72000000 -0.06514646 0.00000000)
		(-0.70000000 -0.06514646 0.00000000)
		(-0.68000000 -0.06514646 0.00000000)
		(-0.66000000 -0.06514646 0.00000000)
		(-0.64000000 -0.06514646 0.00000000)
		(-0.62000000 -0.06514646 0.00000000)
		(-0.60000000 -0.06514646 0.00000000)
		(-0.58000000 -0.06514646 0.00000000)
		(-0.56000000 -0.06514646 0.00000000)
		(-0.54000000 -0.06514646 0.00000000)
		(-0.52000000 -0.06514646 0.00000000)
		(-0.50000000 -0.06514646 0.00000000)
		(-0.48000000 -0.06514646 0.00000000)
		(-0.46000000 -0.06514646 0.00000000)
		(-0.44000000 -0.06514646 0.00000000)
		(-0.42000000 -0.06514646 0.00000000)
		(-0.40000000 -0.06514646 0.00000000)
		(-0.38000000 -0.06514646 0.00000000)
		(-0.36000000 -0.06514646 0.00000000)
		(-0.34000000 -0.06514646 0.00000000)
		(-0.32000000 -0.06514646 0.00000000)
		(-0.30000000 -0.06514646 0.00000000)
		(-0.28000000 -0.06514646 0.00000000)
		(-0.26000000 -0.06514646 0.00000000)
		(-0.24000000 -0.06514646 0.00000000)
		(-0.22000000 -0.06514646 0.00000000)
		(-0.20000000 -0.06514646 0.00000000)
		(-0.18000000 -0.06514646 0.00000000)
		(-0.16000000 -0.06514646 0.00000000)
		(-0.14000000 -0.06514646 0.00000000)
		(-0.12000000 -0.06514646 0.00000000)
		(-0.10000000 -0.06514646 0.00000000)
		(-0.08162011 -0.06419409 0.00000000)
		(-0.06324022 -0.06133697 0.00000000)
		(-0.04486034 -0.05657509 0.00000000)
		(-0.02648045 -0.04990847 0.00000000)
		(-0.00810056 -0.04133710 0.00000000)
		(0.01027933 -0.03086098 0.00000000)
		(0.02865922 -0.01848012 0.00000000)
		(0.04703911 -0.00419450 0.00000000)
		(0.06541899 0.01199587 0.00000000)
		(0.08379888 0.03009098 0.00000000)
		(0.10055866 0.04905796 0.00000000)
		(0.11731844 0.06773529 0.00000000)
		(0.13407821 0.08601271 0.00000000)
		(0.15083799 0.10378230 0.00000000)
		(0.16759777 0.12093914 0.00000000)
		(0.18435754 0.13738195 0.00000000)
		(0.20111732 0.15301365 0.00000000)
		(0.21787709 0.16774193 0.00000000)
		(0.23463687 0.18147985 0.00000000)
		(0.25139665 0.19414629 0.00000000)
		(0.26815642 0.20566648 0.00000000)
		(0.28491620 0.21597238 0.00000000)
		(0.30167598 0.22500317 0.00000000)
		(0.31843575 0.23270551 0.00000000)
		(0.33519553 0.23903393 0.00000000)
		(0.35195531 0.24395107 0.00000000)
		(0.36871508 0.24742790 0.00000000)
		(0.38547486 0.24944389 0.00000000)
		(0.40223464 0.24998714 0.00000000)
		(0.41899441 0.24905443 0.00000000)
		(0.43575419 0.24665128 0.00000000)
		(0.45251397 0.24279188 0.00000000)
		(0.46927374 0.23749901 0.00000000)
		(0.48603352 0.23080392 0.00000000)
		(0.50279330 0.22274614 0.00000000)
		(0.51955307 0.21337324 0.00000000)
		(0.53631285 0.20274057 0.00000000)
		(0.55307263 0.19091089 0.00000000)
		(0.56983240 0.17795406 0.00000000)
		(0.58659218 0.16394657 0.00000000)
		(0.60335196 0.14897112 0.00000000)
		(0.62011173 0.13311612 0.00000000)
		(0.63687151 0.11647520 0.00000000)
		(0.65363128 0.09914660 0.00000000)
		(0.67039106 0.08123262 0.00000000)
		(0.68715084 0.06283904 0.00000000)
		(0.70391061 0.04407444 0.00000000)
		(0.72067039 0.02504963 0.00000000)
		(0.73743017 0.00587693 0.00000000)
		(0.75418994 -0.01333048 0.00000000)
		(0.77094972 -0.03245918 0.00000000)
		(0.78770950 -0.05139624 0.00000000)
		(0.80446927 -0.07002985 0.00000000)
		(0.82122905 -0.08824999 0.00000000)
		(0.83798883 -0.10594910 0.00000000)
		(0.85474860 -0.12302267 0.00000000)
		(0.87150838 -0.13936991 0.00000000)
		(0.88826816 -0.15489429 0.00000000)
		(0.90502793 -0.16950416 0.00000000)
		(0.92178771 -0.18311326 0.00000000)
		(0.93854749 -0.19564124 0.00000000)
		(0.95530726 -0.20701413 0.00000000)
		(0.97206704 -0.21716479 0.00000000)
		(0.98882682 -0.22603328 0.00000000)
		(1.00558659 -0.23356726 0.00000000)
		(1.02234637 -0.23972222 0.00000000)
		(1.03910615 -0.24446184 0.00000000)
		(1.05586592 -0.24775814 0.00000000)
		(1.07262570 -0.24959164 0.00000000)
		(1.08938547 -0.24995153 0.00000000)
		(1.10614525 -0.24883567 0.00000000)
		(1.12290503 -0.24625067 0.00000000)
		(1.13966480 -0.24221178 0.00000000)
		(1.15642458 -0.23674284 0.00000000)
		(1.17318436 -0.22987615 0.00000000)
		(1.18994413 -0.22165224 0.00000000)
		(1.20670391 -0.21211968 0.00000000)
		(1.22346369 -0.20133474 0.00000000)
		(1.24022346 -0.18936110 0.00000000)
		(1.25698324 -0.17626945 0.00000000)
		(1.27374302 -0.16213709 0.00000000)
		(1.29050279 -0.14704746 0.00000000)
		(1.30726257 -0.13108964 0.00000000)
		(1.32402235 -0.11435785 0.00000000)
		(1.34078212 -0.09695089 0.00000000)
		(1.35754190 -0.07897151 0.00000000)
		(1.37430168 -0.06052588 0.00000000)
		(1.39106145 -0.04172290 0.00000000)
		(1.40782123 -0.02267358 0.00000000)
		(1.42458101 -0.00349039 0.00000000)
		(1.44134078 0.01571340 0.00000000)
		(1.45810056 0.03482442 0.00000000)
		(1.47486034 0.05372983 0.00000000)
		(1.49162011 0.07231802 0.00000000)
		(1.50837989 0.09047923 0.00000000)
		(1.52513966 0.10810625 0.00000000)
		(1.54189944 0.12509499 0.00000000)
		(1.55865922 0.14134516 0.00000000)
		(1.57541899 0.15676081 0.00000000)
		(1.59217877 0.17125093 0.00000000)
		(1.60893855 0.18472997 0.00000000)
		(1.62569832 0.19711834 0.00000000)
		(1.64245810 0.20834291 0.00000000)
		(1.65921788 0.21833740 0.00000000)
		(1.67597765 0.22704280 0.00000000)
		(1.69273743 0.23440771 0.00000000)
		(1.70949721 0.24038866 0.00000000)
		(1.72625698 0.24495033 0.00000000)
		(1.74301676 0.24806579 0.00000000)
		(1.75977654 0.24971664 0.00000000)
		(1.77653631 0.24989313 0.00000000)
		(1.79329609 0.24859423 0.00000000)
		(1.81005587 0.24582761 0.00000000)
		(1.82681564 0.24160959 0.00000000)
		(1.84357542 0.23596509 0.00000000)
		(1.86033520 0.22892742 0.00000000)
		(1.87709497 0.22053814 0.00000000)
		(1.89385475 0.21084678 0.00000000)
		(1.91061453 0.19991056 0.00000000)
		(1.92737430 0.18779405 0.00000000)
		(1.94413408 0.17456878 0.00000000)
		(1.96089385 0.16031284 0.00000000)
		(1.97765363 0.14511039 0.00000000)
		(1.99441341 0.12905120 0.00000000)
		(2.01117318 0.11223008 0.00000000)
		(2.02793296 0.09474634 0.00000000)
		(2.04469274 0.07670320 0.00000000)
		(2.06145251 0.05820721 0.00000000)
		(2.07821229 0.03936755 0.00000000)
		(2.09497207 0.02029546 0.00000000)
		(2.11173184 0.00110354 0.00000000)
		(2.12849162 -0.01809489 0.00000000)
		(2.14525140 -0.03718649 0.00000000)
		(2.16201117 -0.05605853 0.00000000)
		(2.17877095 -0.07459960 0.00000000)
		(2.19553073 -0.09270022 0.00000000)
		(2.21229050 -0.11025354 0.00000000)
		(2.22905028 -0.12715590 0.00000000)
		(2.24581006 -0.14330752 0.00000000)
		(2.26256983 -0.15861305 0.00000000)
		(2.27932961 -0.17298210 0.00000000)
		(2.29608939 -0.18632985 0.00000000)
		(2.31284916 -0.19857748 0.00000000)
		(2.32960894 -0.20965270 0.00000000)
		(2.34636872 -0.21949010 0.00000000)
		(2.36312849 -0.22803161 0.00000000)
		(2.37988827 -0.23522680 0.00000000)
		(2.39664804 -0.24103319 0.00000000)
		(2.41340782 -0.24541649 0.00000000)
		(2.43016760 -0.24835082 0.00000000)
		(2.44692737 -0.24981887 0.00000000)
		(2.46368715 -0.24981196 0.00000000)
		(2.48044693 -0.24833013 0.00000000)
		(2.49720670 -0.24538214 0.00000000)
		(2.51396648 -0.24098538 0.00000000)
		(2.53072626 -0.23516582 0.00000000)
		(2.54748603 -0.22795782 0.00000000)
		(2.56424581 -0.21940393 0.00000000)
		(2.58100559 -0.20955466 0.00000000)
		(2.59776536 -0.19846816 0.00000000)
		(2.61452514 -0.18620988 0.00000000)
		(2.63128492 -0.17285219 0.00000000)
		(2.64804469 -0.15847397 0.00000000)
		(2.66480447 -0.14316010 0.00000000)
		(2.68156425 -0.12700100 0.00000000)
		(2.69832402 -0.11009208 0.00000000)
		(2.71508380 -0.09253315 0.00000000)
		(2.73184358 -0.07442790 0.00000000)
		(2.74860335 -0.05588323 0.00000000)
		(2.76536313 -0.03700861 0.00000000)
		(2.78212291 -0.01791549 0.00000000)
		(2.79888268 0.00128341 0.00000000)
		(2.81564246 0.02047473 0.00000000)
		(2.83240223 0.03954516 0.00000000)
		(2.84916201 0.05838212 0.00000000)
		(2.86592179 0.07687438 0.00000000)
		(2.88268156 0.09491277 0.00000000)
		(2.89944134 0.11239078 0.00000000)
		(2.91620112 0.12920522 0.00000000)
		(2.93296089 0.14525683 0.00000000)
		(2.95166480 0.15566155 0.00000000)
		(2.97036872 0.16497104 0.00000000)
		(2.98907263 0.17318529 0.00000000)
		(3.00777654 0.18030431 0.00000000)
		(3.02648045 0.18632810 0.00000000)
		(3.04518436 0.19125665 0.00000000)
		(3.06388827 0.19508997 0.00000000)
		(3.08259218 0.19782805 0.00000000)
		(3.10129609 0.19947090 0.00000000)
		(3.12000000 0.20001852 0.00000000)
		(3.14000000 0.20001852 0.00000000)
		(3.16000000 0.20001852 0.00000000)
		(3.18000000 0.20001852 0.00000000)
		(3.20000000 0.20001852 0.00000000)
		(3.22000000 0.20001852 0.00000000)
		(3.24000000 0.20001852 0.00000000)
		(3.26000000 0.20001852 0.00000000)
		(3.28000000 0.20001852 0.00000000)
		(3.30000000 0.20001852 0.00000000)
		(3.32000000 0.20001852 0.00000000)
		(3.34000000 0.20001852 0.00000000)
		(3.36000000 0.20001852 0.00000000)
		(3.38000000 0.20001852 0.00000000)
		(3.40000000 0.20001852 0.00000000)
		(3.42000000 0.20001852 0.00000000)
		(3.44000000 0.20001852 0.00000000)
		(3.46000000 0.20001852 0.00000000)
		(3.48000000 0.20001852 0.00000000)
		(3.50000000 0.20001852 0.00000000)
		(3.52000000 0.20001852 0.00000000)
		(3.54000000 0.20001852 0.00000000)
		(3.56000000 0.20001852 0.00000000)
		(3.58000000 0.20001852 0.00000000)
		(3.60000000 0.20001852 0.00000000)
		(3.62000000 0.20001852 0.00000000)
		(3.64000000 0.20001852 0.00000000)
		(3.66000000 0.20001852 0.00000000)
		(3.68000000 0.20001852 0.00000000)
		(3.70000000 0.20001852 0.00000000)
		(3.72000000 0.20001852 0.00000000)
		(3.74000000 0.20001852 0.00000000)
		(3.76000000 0.20001852 0.00000000)
		(3.78000000 0.20001852 0.00000000)
		(3.80000000 0.20001852 0.00000000)
		(3.82000000 0.20001852 0.00000000)
		(3.84000000 0.20001852 0.00000000)
		(3.86000000 0.20001852 0.00000000)
		(3.88000000 0.20001852 0.00000000)
		(3.90000000 0.20001852 0.00000000)
		(3.92000000 0.20001852 0.00000000)
		(3.94000000 0.20001852 0.00000000)
		(3.96000000 0.20001852 0.00000000)
		(3.98000000 0.20001852 0.00000000)
		(4.00000000 0.20001852 0.00000000)
	)
	polyLine 4 5
	(
		(-1.00000000 -0.06514646 0.10000000)
		(-0.98000000 -0.06514646 0.10000000)
		(-0.96000000 -0.06514646 0.10000000)
		(-0.94000000 -0.06514646 0.10000000)
		(-0.92000000 -0.06514646 0.10000000)
		(-0.90000000 -0.06514646 0.10000000)
		(-0.88000000 -0.06514646 0.10000000)
		(-0.86000000 -0.06514646 0.10000000)
		(-0.84000000 -0.06514646 0.10000000)
		(-0.82000000 -0.06514646 0.10000000)
		(-0.80000000 -0.06514646 0.10000000)
		(-0.78000000 -0.06514646 0.10000000)
		(-0.76000000 -0.06514646 0.10000000)
		(-0.74000000 -0.06514646 0.10000000)
		(-0.72000000 -0.06514646 0.10000000)
		(-0.70000000 -0.06514646 0.10000000)
		(-0.68000000 -0.06514646 0.10000000)
		(-0.66000000 -0.06514646 0.10000000)
		(-0.64000000 -0.06514646 0.10000000)
		(-0.62000000 -0.06514646 0.10000000)
		(-0.60000000 -0.06514646 0.10000000)
		(-0.58000000 -0.06514646 0.10000000)
		(-0.56000000 -0.06514646 0.10000000)
		(-0.54000000 -0.06514646 0.10000000)
		(-0.52000000 -0.06514646 0.10000000)
		(-0.50000000 -0.06514646 0.10000000)
		(-0.48000000 -0.06514646 0.10000000)
		(-0.46000000 -0.06514646 0.10000000)
		(-0.44000000 -0.06514646 0.10000000)
		(-0.42000000 -0.06514646 0.10000000)
		(-0.40000000 -0.06514646 0.10000000)
		(-0.38000000 -0.06514646 0.10000000)
		(-0.36000000 -0.06514646 0.10000000)
		(-0.34000000 -0.06514646 0.10000000)
		(-0.32000000 -0.06514646 0.10000000)
		(-0.30000000 -0.06514646 0.10000000)
		(-0.28000000 -0.06514646 0.10000000)
		(-0.26000000 -0.06514646 0.10000000)
		(-0.24000000 -0.06514646 0.10000000)
		(-0.22000000 -0.06514646 0.10000000)
		(-0.20000000 -0.06514646 0.10000000)
		(-0.18000000 -0.06514646 0.10000000)
		(-0.16000000 -0.06514646 0.10000000)
		(-0.14000000 -0.06514646 0.10000000)
		(-0.12000000 -0.06514646 0.10000000)
		(-0.10000000 -0.06514646 0.10000000)
		(-0.08162011 -0.06419409 0.10000000)
		(-0.06324022 -0.06133697 0.10000000)
		(-0.04486034 -0.05657509 0.10000000)
		(-0.02648045 -0.04990847 0.10000000)
		(-0.00810056 -0.04133710 0.10000000)
		(0.01027933 -0.03086098 0.10000000)
		(0.02865922 -0.01848012 0.10000000)
		(0.04703911 -0.00419450 0.10000000)
		(0.06541899 0.01199587 0.10000000)
		(0.08379888 0.03009098 0.10000000)
		(0.10055866 0.04905796 0.10000000)
		(0.11731844 0.06773529 0.10000000)
		(0.13407821 0.08601271 0.10000000)
		(0.15083799 0.10378230 0.10000000)
		(0.16759777 0.12093914 0.10000000)
		(0.18435754 0.13738195 0.10000000)
		(0.20111732 0.15301365 0.10000000)
		(0.21787709 0.16774193 0.10000000)
		(0.23463687 0.18147985 0.10000000)
		(0.25139665 0.19414629 0.10000000)
		(0.26815642 0.20566648 0.10000000)
		(0.28491620 0.21597238 0.10000000)
		(0.30167598 0.22500317 0.10000000)
		(0.31843575 0.23270551 0.10000000)
		(0.33519553 0.23903393 0.10000000)
		(0.35195531 0.24395107 0.10000000)
		(0.36871508 0.24742790 0.10000000)
		(0.38547486 0.24944389 0.10000000)
		(0.40223464 0.24998714 0.10000000)
		(0.41899441 0.24905443 0.10000000)
		(0.43575419 0.24665128 0.10000000)
		(0.45251397 0.24279188 0.10000000)
		(0.46927374 0.23749901 0.10000000)
		(0.48603352 0.23080392 0.10000000)
		(0.50279330 0.22274614 0.10000000)
		(0.51955307 0.21337324 0.10000000)
		(0.53631285 0.20274057 0.10000000)
		(0.55307263 0.19091089 0.10000000)
		(0.56983240 0.17795406 0.10000000)
		(0.58659218 0.16394657 0.10000000)
		(0.60335196 0.14897112 0.10000000)
		(0.62011173 0.13311612 0.10000000)
		(0.63687151 0.11647520 0.10000000)
		(0.65363128 0.09914660 0.10000000)
		(0.67039106 0.08123262 0.10000000)
		(0.68715084 0.06283904 0.10000000)
		(0.70391061 0.04407444 0.10000000)
		(0.72067039 0.02504963 0.10000000)
		(0.73743017 0.00587693 0.10000000)
		(0.75418994 -0.01333048 0.10000000)
		(0.77094972 -0.03245918 0.10000000)
		(0.78770950 -0.05139624 0.10000000)
		(0.80446927 -0.07002985 0.10000000)
		(0.82122905 -0.08824999 0.10000000)
		(0.83798883 -0.10594910 0.10000000)
		(0.85474860 -0.12302267 0.10000000)
		(0.87150838 -0.13936991 0.10000000)
		(0.88826816 -0.15489429 0.10000000)
		(0.90502793 -0.16950416 0.10000000)
		(0.92178771 -0.18311326 0.10000000)
		(0.93854749 -0.19564124 0.10000000)
		(0.95530726 -0.20701413 0.10000000)
		(0.97206704 -0.21716479 0.10000000)
		(0.98882682 -0.22603328 0.10000000)
		(1.00558659 -0.23356726 0.10000000)
		(1.02234637 -0.23972222 0.10000000)
		(1.03910615 -0.24446184 0.10000000)
		(1.05586592 -0.24775814 0.10000000)
		(1.07262570 -0.24959164 0.10000000)
		(1.08938547 -0.24995153 0.10000000)
		(1.10614525 -0.24883567 0.10000000)
		(1.12290503 -0.24625067 0.10000000)
		(1.13966480 -0.24221178 0.10000000)
		(1.15642458 -0.23674284 0.10000000)
		(1.17318436 -0.22987615 0.10000000)
		(1.18994413 -0.22165224 0.10000000)
		(1.20670391 -0.21211968 0.10000000)
		(1.22346369 -0.20133474 0.10000000)
		(1.24022346 -0.18936110 0.10000000)
		(1.25698324 -0.17626945 0.10000000)
		(1.27374302 -0.16213709 0.10000000)
		(1.29050279 -0.14704746 0.10000000)
		(1.30726257 -0.13108964 0.10000000)
		(1.32402235 -0.11435785 0.10000000)
		(1.34078212 -0.09695089 0.10000000)
		(1.35754190 -0.07897151 0.10000000)
		(1.37430168 -0.06052588 0.10000000)
		(1.39106145 -0.04172290 0.10000000)
		(1.40782123 -0.02267358 0.10000000)
		(1.42458101 -0.00349039 0.10000000)
		(1.44134078 0.01571340 0.10000000)
		(1.45810056 0.03482442 0.10000000)
		(1.47486034 0.05372983 0.10000000)
		(1.49162011 0.07231802 0.10000000)
		(1.50837989 0.09047923 0.10000000)
		(1.52513966 0.10810625 0.10000000)
		(1.54189944 0.12509499 0.10000000)
		(1.55865922 0.14134516 0.10000000)
		(1.57541899 0.15676081 0.10000000)
		(1.59217877 0.17125093 0.10000000)
		(1.60893855 0.18472997 0.10000000)
		(1.62569832 0.19711834 0.10000000)
		(1.64245810 0.20834291 0.10000000)
		(1.65921788 0.21833740 0.10000000)
		(1.67597765 0.22704280 0.10000000)
		(1.69273743 0.23440771 0.10000000)
		(1.70949721 0.24038866 0.10000000)
		(1.72625698 0.24495033 0.10000000)
		(1.74301676 0.24806579 0.10000000)
		(1.75977654 0.24971664 0.10000000)
		(1.77653631 0.24989313 0.10000000)
		(1.79329609 0.24859423 0.10000000)
		(1.81005587 0.24582761 0.10000000)
		(1.82681564 0.24160959 0.10000000)
		(1.84357542 0.23596509 0.10000000)
		(1.86033520 0.22892742 0.10000000)
		(1.87709497 0.22053814 0.10000000)
		(1.89385475 0.21084678 0.10000000)
		(1.91061453 0.19991056 0.10000000)
		(1.92737430 0.18779405 0.10000000)
		(1.94413408 0.17456878 0.10000000)
		(1.96089385 0.16031284 0.10000000)
		(1.97765363 0.14511039 0.10000000)
		(1.99441341 0.12905120 0.10000000)
		(2.01117318 0.11223008 0.10000000)
		(2.02793296 0.09474634 0.10000000)
		(2.04469274 0.07670320 0.10000000)
		(2.06145251 0.05820721 0.10000000)
		(2.07821229 0.03936755 0.10000000)
		(2.09497207 0.02029546 0.10000000)
		(2.11173184 0.00110354 0.10000000)
		(2.12849162 -0.01809489 0.10000000)
		(2.14525140 -0.03718649 0.10000000)
		(2.16201117 -0.05605853 0.10000000)
		(2.17877095 -0.07459960 0.10000000)
		(2.19553073 -0.09270022 0.10000000)
		(2.21229050 -0.11025354 0.10000000)
		(2.22905028 -0.12715590 0.10000000)
		(2.24581006 -0.14330752 0.10000000)
		(2.26256983 -0.15861305 0.10000000)
		(2.27932961 -0.17298210 0.10000000)
		(2.29608939 -0.18632985 0.10000000)
		(2.31284916 -0.19857748 0.10000000)
		(2.32960894 -0.20965270 0.10000000)
		(2.34636872 -0.21949010 0.10000000)
		(2.36312849 -0.22803161 0.10000000)
		(2.37988827 -0.23522680 0.10000000)
		(2.39664804 -0.24103319 0.10000000)
		(2.41340782 -0.24541649 0.10000000)
		(2.43016760 -0.24835082 0.10000000)
		(2.44692737 -0.24981887 0.10000000)
		(2.46368715 -0.24981196 0.10000000)
		(2.48044693 -0.24833013 0.10000000)
		(2.49720670 -0.24538214 0.10000000)
		(2.51396648 -0.24098538 0.10000000)
		(2.53072626 -0.23516582 0.10000000)
		(2.54748603 -0.22795782 0.10000000)
		(2.56424581 -0.21940393 0.10000000)
		(2.58100559 -0.20955466 0.10000000)
		(2.59776536 -0.19846816 0.10000000)
		(2.61452514 -0.18620988 0.10000000)
		(2.63128492 -0.17285219 0.10000000)
		(2.64804469 -0.15847397 0.10000000)
		(2.66480447 -0.14316010 0.10000000)
		(2.68156425 -0.12700100 0.10000000)
		(2.69832402 -0.11009208 0.10000000)
		(2.71508380 -0.09253315 0.10000000)
		(2.73184358 -0.07442790 0.10000000)
		(2.74860335 -0.05588323 0.10000000)
		(2.76536313 -0.03700861 0.10000000)
		(2.78212291 -0.01791549 0.10000000)
		(2.79888268 0.00128341 0.10000000)
		(2.81564246 0.02047473 0.10000000)
		(2.83240223 0.03954516 0.10000000)
		(2.84916201 0.05838212 0.10000000)
		(2.86592179 0.07687438 0.10000000)
		(2.88268156 0.09491277 0.10000000)
		(2.89944134 0.11239078 0.10000000)
		(2.91620112 0.12920522 0.10000000)
		(2.93296089 0.14525683 0.10000000)
		(2.95166480 0.15566155 0.10000000)
		(2.97036872 0.16497104 0.10000000)
		(2.98907263 0.17318529 0.10000000)
		(3.00777654 0.18030431 0.10000000)
		(3.02648045 0.18632810 0.10000000)
		(3.04518436 0.19125665 0.10000000)
		(3.06388827 0.19508997 0.10000000)
		(3.08259218 0.19782805 0.10000000)
		(3.10129609 0.19947090 0.10000000)
		(3.12000000 0.20001852 0.10000000)
		(3.14000000 0.20001852 0.10000000)
		(3.16000000 0.20001852 0.10000000)
		(3.18000000 0.20001852 0.10000000)
		(3.20000000 0.20001852 0.10000000)
		(3.22000000 0.20001852 0.10000000)
		(3.24000000 0.20001852 0.10000000)
		(3.26000000 0.20001852 0.10000000)
		(3.28000000 0.20001852 0.10000000)
		(3.30000000 0.20001852 0.10000000)
		(3.32000000 0.20001852 0.10000000)
		(3.34000000 0.20001852 0.10000000)
		(3.36000000 0.20001852 0.10000000)
		(3.38000000 0.20001852 0.10000000)
		(3.40000000 0.20001852 0.10000000)
		(3.42000000 0.20001852 0.10000000)
		(3.44000000 0.20001852 0.10000000)
		(3.46000000 0.20001852 0.10000000)
		(3.48000000 0.20001852 0.10000000)
		(3.50000000 0.20001852 0.10000000)
		(3.52000000 0.20001852 0.10000000)
		(3.54000000 0.20001852 0.10000000)
		(3.56000000 0.20001852 0.10000000)
		(3.58000000 0.20001852 0.10000000)
		(3.60000000 0.20001852 0.10000000)
		(3.62000000 0.20001852 0.10000000)
		(3.64000000 0.20001852 0.10000000)
		(3.66000000 0.20001852 0.10000000)
		(3.68000000 0.20001852 0.10000000)
		(3.70000000 0.20001852 0.10000000)
		(3.72000000 0.20001852 0.10000000)
		(3.74000000 0.20001852 0.10000000)
		(3.76000000 0.20001852 0.10000000)
		(3.78000000 0.20001852 0.10000000)
		(3.80000000 0.20001852 0.10000000)
		(3.82000000 0.20001852 0.10000000)
		(3.84000000 0.20001852 0.10000000)
		(3.86000000 0.20001852 0.10000000)
		(3.88000000 0.20001852 0.10000000)
		(3.90000000 0.20001852 0.10000000)
		(3.92000000 0.20001852 0.10000000)
		(3.94000000 0.20001852 0.10000000)
		(3.96000000 0.20001852 0.10000000)
		(3.98000000 0.20001852 0.10000000)
		(4.00000000 0.20001852 0.10000000)
	)
	polyLine 3 2
	(
		(-1.00000000 0.43485354 0.00000000)
		(-0.98000000 0.43532299 0.00000000)
		(-0.96000000 0.43579244 0.00000000)
		(-0.94000000 0.43626190 0.00000000)
		(-0.92000000 0.43673135 0.00000000)
		(-0.90000000 0.43720080 0.00000000)
		(-0.88000000 0.43767026 0.00000000)
		(-0.86000000 0.43813971 0.00000000)
		(-0.84000000 0.43860916 0.00000000)
		(-0.82000000 0.43907862 0.00000000)
		(-0.80000000 0.43954807 0.00000000)
		(-0.78000000 0.44001752 0.00000000)
		(-0.76000000 0.44048698 0.00000000)
		(-0.74000000 0.44095643 0.00000000)
		(-0.72000000 0.44142588 0.00000000)
		(-0.70000000 0.44189534 0.00000000)
		(-0.68000000 0.44236479 0.00000000)
		(-0.66000000 0.44283424 0.00000000)
		(-0.64000000 0.44330369 0.00000000)
		(-0.62000000 0.44377315 0.00000000)
		(-0.60000000 0.44424260 0.00000000)
		(-0.58000000 0.44471205 0.00000000)
		(-0.56000000 0.44518151 0.00000000)
		(-0.54000000 0.44565096 0.00000000)
		(-0.52000000 0.44612041 0.00000000)
		(-0.50000000 0.44658987 0.00000000)
		(-0.48000000 0.44705932 0.00000000)
		(-0.46000000 0.44752877 0.00000000)
		(-0.44000000 0.44799823 0.00000000)
		(-0.42000000 0.44846768 0.00000000)
		(-0.40000000 0.44893713 0.00000000)
		(-0.38000000 0.44940659 0.00000000)
		(-0.36000000 0.44987604 0.00000000)
		(-0.34000000 0.45034549 0.00000000)
		(-0.32000000 0.45081495 0.00000000)
		(-0.30000000 0.45128440 0.00000000)
		(-0.28000000 0.45175385 0.00000000)
		(-0.26000000 0.45222331 0.00000000)
		(-0.24000000 0.45269276 0.00000000)
		(-0.22000000 0.45316221 0.00000000)
		(-0.20000000 0.45363167 0.00000000)
		(-0.18000000 0.45410112 0.00000000)
		(-0.16000000 0.45457057 0.00000000)
		(-0.14000000 0.45504002 0.00000000)
		(-0.12000000 0.45550948 0.00000000)
		(-0.10000000 0.45597893 0.00000000)
		(-0.08162011 0.45589452 0.00000000)
		(-0.06324022 0.45723969 0.00000000)
		(-0.04486034 0.46001444 0.00000000)
		(-0.02648045 0.46421877 0.00000000)
		(-0.00810056 0.46985267 0.00000000)
		(0.01027933 0.47691615 0.00000000)
		(0.02865922 0.48540921 0.00000000)
		(0.04703911 0.49533185 0.00000000)
		(0.06541899 0.50668407 0.00000000)
		(0.08379888 0.51946586 0.00000000)
		(0.10055866 0.53173560 0.00000000)
		(0.11731844 0.54381797 0.00000000)
		(0.13407821 0.55564163 0.00000000)
		(0.15083799 0.56713678 0.00000000)
		(0.16759777 0.57823555 0.00000000)
		(0.18435754 0.58887241 0.00000000)
		(0.20111732 0.59898455 0.00000000)
		(0.21787709 0.60851228 0.00000000)
		(0.23463687 0.61739934 0.00000000)
		(0.25139665 0.62559326 0.00000000)
		(0.26815642 0.63304567 0.00000000)
		(0.28491620 0.63971256 0.00000000)
		(0.30167598 0.64555458 0.00000000)
		(0.31843575 0.65053722 0.00000000)
		(0.33519553 0.65463108 0.00000000)
		(0.35195531 0.65781198 0.00000000)
		(0.36871508 0.66006114 0.00000000)
		(0.38547486 0.66136529 0.00000000)
		(0.40223464 0.66171671 0.00000000)
		(0.41899441 0.66111335 0.00000000)
		(0.43575419 0.65955875 0.00000000)
		(0.45251397 0.65706210 0.00000000)
		(0.46927374 0.65363814 0.00000000)
		(0.48603352 0.64930709 0.00000000)
		(0.50279330 0.64409451 0.00000000)
		(0.51955307 0.63803118 0.00000000)
		(0.53631285 0.63115290 0.00000000)
		(0.55307263 0.62350028 0.00000000)
		(0.56983240 0.61511851 0.00000000)
		(0.58659218 0.60605706 0.00000000)
		(0.60335196 0.59636944 0.00000000)
		(0.62011173 0.58611284 0.00000000)
		(0.63687151 0.57534782 0.00000000)
		(0.65363128 0.56413795 0.00000000)
		(0.67039106 0.55254939 0.00000000)
		(0.68715084 0.54065058 0.00000000)
		(0.70391061 0.52851176 0.00000000)
		(0.72067039 0.51620461 0.00000000)
		(0.73743017 0.50380178 0.00000000)
		(0.75418994 0.49137651 0.00000000)
		(0.77094972 0.47900215 0.00000000)
		(0.78770950 0.46675177 0.00000000)
		(0.80446927 0.45469768 0.00000000)
		(0.82122905 0.44291107 0.00000000)
		(0.83798883 0.43146151 0.00000000)
		(0.85474860 0.42041661 0.00000000)
		(0.87150838 0.40984159 0.00000000)
		(0.88826816 0.39979886 0.00000000)
		(0.90502793 0.39034774 0.00000000)
		(0.92178771 0.38154401 0.00000000)
		(0.93854749 0.37343966 0.00000000)
		(0.95530726 0.36608253 0.00000000)
		(0.97206704 0.35951607 0.00000000)
		(0.98882682 0.35377904 0.00000000)
		(1.00558659 0.34890531 0.00000000)
		(1.02234637 0.34492366 0.00000000)
		(1.03910615 0.34185760 0.00000000)
		(1.05586592 0.33972523 0.00000000)
		(1.07262570 0.33853913 0.00000000)
		(1.08938547 0.33830632 0.00000000)
		(1.10614525 0.33902817 0.00000000)
		(1.12290503 0.34070041 0.00000000)
		(1.13966480 0.34331317 0.00000000)
		(1.15642458 0.34685102 0.00000000)
		(1.17318436 0.35129309 0.00000000)
		(1.18994413 0.35661313 0.00000000)
		(1.20670391 0.36277975 0.00000000)
		(1.22346369 0.36975653 0.00000000)
		(1.24022346 0.37750228 0.00000000)
		(1.25698324 0.38597126 0.00000000)
		(1.27374302 0.39511349 0.00000000)
		(1.29050279 0.40487498 0.00000000)
		(1.30726257 0.41519809 0.00000000)
		(1.32402235 0.42602189 0.00000000)
		(1.34078212 0.43728246 0.00000000)
		(1.35754190 0.44891332 0.00000000)
		(1.37430168 0.46084580 0.00000000)
		(1.39106145 0.47300945 0.00000000)
		(1.40782123 0.48533246 0.00000000)
		(1.42458101 0.49774206 0.00000000)
		(1.44134078 0.51016500 0.00000000)
		(1.45810056 0.52252792 0.00000000)
		(1.47486034 0.53475784 0.00000000)
		(1.49162011 0.54678254 0.00000000)
		(1.50837989 0.55853103 0.00000000)
		(1.52513966 0.56993395 0.00000000)
		(1.54189944 0.58092397 0.00000000)
		(1.55865922 0.59143620 0.00000000)
		(1.57541899 0.60140859 0.00000000)
		(1.59217877 0.61078225 0.00000000)
		(1.60893855 0.61950184 0.00000000)
		(1.62569832 0.62751588 0.00000000)
		(1.64245810 0.63477706 0.00000000)
		(1.65921788 0.64124249 0.00000000)
		(1.67597765 0.64687402 0.00000000)
		(1.69273743 0.65163838 0.00000000)
		(1.70949721 0.65550746 0.00000000)
		(1.72625698 0.65845840 0.00000000)
		(1.74301676 0.66047379 0.00000000)
		(1.75977654 0.66154173 0.00000000)
		(1.77653631 0.66165590 0.00000000)
		(1.79329609 0.66081564 0.00000000)
		(1.81005587 0.65902592 0.00000000)
		(1.82681564 0.65629728 0.00000000)
		(1.84357542 0.65264585 0.00000000)
		(1.86033520 0.64809318 0.00000000)
		(1.87709497 0.64266616 0.00000000)
		(1.89385475 0.63639681 0.00000000)
		(1.91061453 0.62932217 0.00000000)
		(1.92737430 0.62148400 0.00000000)
		(1.94413408 0.61292857 0.00000000)
		(1.96089385 0.60370640 0.00000000)
		(1.97765363 0.59387193 0.00000000)
		(1.99441341 0.58348324 0.00000000)
		(2.01117318 0.57260165 0.00000000)
		(2.02793296 0.56129142 0.00000000)
		(2.04469274 0.54961931 0.00000000)
		(2.06145251 0.53765425 0.00000000)
		(2.07821229 0.52546687 0.00000000)
		(2.09497207 0.51312913 0.00000000)
		(2.11173184 0.50071388 0.00000000)
		(2.12849162 0.48829441 0.00000000)
		(2.14525140 0.47594406 0.00000000)
		(2.16201117 0.46373573 0.00000000)
		(2.17877095 0.45174151 0.00000000)
		(2.19553073 0.44003221 0.00000000)
		(2.21229050 0.42867697 0.00000000)
		(2.22905028 0.41774283 0.00000000)
		(2.24581006 0.40729434 0.00000000)
		(2.26256983 0.39739320 0.00000000)
		(2.27932961 0.38809786 0.00000000)
		(2.29608939 0.37946320 0.00000000)
		(2.31284916 0.37154020 0.00000000)
		(2.32960894 0.36437564 0.00000000)
		(2.34636872 0.35801182 0.00000000)
		(2.36312849 0.35248632 0.00000000)
		(2.37988827 0.34783175 0.00000000)
		(2.39664804 0.34407560 0.00000000)
		(2.41340782 0.34124004 0.00000000)
		(2.43016760 0.33934182 0.00000000)
		(2.44692737 0.33839214 0.00000000)
		(2.46368715 0.33839661 0.00000000)
		(2.48044693 0.33935520 0.00000000)
		(2.49720670 0.34126226 0.00000000)
		(2.51396648 0.34410652 0.00000000)