/*--------------------------------*- C++ -*----------------------------------*\\
/*--------------------------------*- C++ -*----------------------------------*\\
| =========                 |                                                 |
| \\\\      /  F ield         | OpenFOAM: The Open Source CFD Toolbox           |
|  \\\\    /   O peration     | Version:  v2012                                 |
|   \\\\  /    A nd           | Website:  www.openfoam.com                      |
|    \\\\/     M anipulation  |                                                 |
\\*---------------------------------------------------------------------------*/
FoamFile
{
    version     2.0;
    format      ascii;
    class       dictionary;
    object      blockMeshDict;
}
// * * * * * * * * * * * * * * * * * * * * * * * * * * * * * * * * * * * * * //

scale   0.01;

xmin -1;
xmax 5;
ymin 0;
ymax 0.5;
zmin 0;
zmax 0.1;

vertices
(
    (-1.00000000 0.24075268 0.00000000)
    (4.00000000 0.07557099 0.00000000)
    (4.00000000 0.57557099 0.00000000)
    (-1.00000000 0.74075268 0.00000000)
    (-1.00000000 0.24075268 0.10000000)
    (4.00000000 0.07557099 0.10000000)
    (4.00000000 0.57557099 0.10000000)
    (-1.00000000 0.74075268 0.10000000)
);

blocks
(
    hex (0 1 2 3 4 5 6 7) (200 20 1) simpleGrading (1 1 1)
);

edges
(
	polyLine 0 1
	(
		(-1.00000000 0.24075268 0.00000000)
		(-0.98000000 0.24075268 0.00000000)
		(-0.96000000 0.24075268 0.00000000)
		(-0.94000000 0.24075268 0.00000000)
		(-0.92000000 0.24075268 0.00000000)
		(-0.90000000 0.24075268 0.00000000)
		(-0.88000000 0.24075268 0.00000000)
		(-0.86000000 0.24075268 0.00000000)
		(-0.84000000 0.24075268 0.00000000)
		(-0.82000000 0.24075268 0.00000000)
		(-0.80000000 0.24075268 0.00000000)
		(-0.78000000 0.24075268 0.00000000)
		(-0.76000000 0.24075268 0.00000000)
		(-0.74000000 0.24075268 0.00000000)
		(-0.72000000 0.24075268 0.00000000)
		(-0.70000000 0.24075268 0.00000000)
		(-0.68000000 0.24075268 0.00000000)
		(-0.66000000 0.24075268 0.00000000)
		(-0.64000000 0.24075268 0.00000000)
		(-0.62000000 0.24075268 0.00000000)
		(-0.60000000 0.24075268 0.00000000)
		(-0.58000000 0.24075268 0.00000000)
		(-0.56000000 0.24075268 0.00000000)
		(-0.54000000 0.24075268 0.00000000)
		(-0.52000000 0.24075268 0.00000000)
		(-0.50000000 0.24075268 0.00000000)
		(-0.48000000 0.24075268 0.00000000)
		(-0.46000000 0.24075268 0.00000000)
		(-0.44000000 0.24075268 0.00000000)
		(-0.42000000 0.24075268 0.00000000)
		(-0.40000000 0.24075268 0.00000000)
		(-0.38000000 0.24075268 0.00000000)
		(-0.36000000 0.24075268 0.00000000)
		(-0.34000000 0.24075268 0.00000000)
		(-0.32000000 0.24075268 0.00000000)
		(-0.30000000 0.24075268 0.00000000)
		(-0.28000000 0.24075268 0.00000000)
		(-0.26000000 0.24075268 0.00000000)
		(-0.24000000 0.24075268 0.00000000)
		(-0.22000000 0.24075268 0.00000000)
		(-0.20000000 0.24075268 0.00000000)
		(-0.18000000 0.24075268 0.00000000)
		(-0.16000000 0.24075268 0.00000000)
		(-0.14000000 0.24075268 0.00000000)
		(-0.12000000 0.24075268 0.00000000)
		(-0.10000000 0.24075268 0.00000000)
		(-0.08162011 0.24082684 0.00000000)
		(-0.06324022 0.24104933 0.00000000)
		(-0.04486034 0.24142015 0.00000000)
		(-0.02648045 0.24193930 0.00000000)
		(-0.00810056 0.24260678 0.00000000)
		(0.01027933 0.24342258 0.00000000)
		(0.02865922 0.24438671 0.00000000)
		(0.04703911 0.24549917 0.00000000)
		(0.06541899 0.24675995 0.00000000)
		(0.08379888 0.24816907 0.00000000)
		(0.10055866 0.24502221 0.00000000)
		(0.11731844 0.24035518 0.00000000)
		(0.13407821 0.23419694 0.00000000)
		(0.15083799 0.22658568 0.00000000)
		(0.16759777 0.21756864 0.00000000)
		(0.18435754 0.20720176 0.00000000)
		(0.20111732 0.19554935 0.00000000)
		(0.21787709 0.18268371 0.00000000)
		(0.23463687 0.16868466 0.00000000)
		(0.25139665 0.15363906 0.00000000)
		(0.26815642 0.13764024 0.00000000)
		(0.28491620 0.12078748 0.00000000)
		(0.30167598 0.10318532 0.00000000)
		(0.31843575 0.08494298 0.00000000)
		(0.33519553 0.06617363 0.00000000)
		(0.35195531 0.04699373 0.00000000)
		(0.36871508 0.02752227 0.00000000)
		(0.38547486 0.00788005 0.00000000)
		(0.40223464 -0.01181105 0.00000000)
		(0.41899441 -0.03142888 0.00000000)
		(0.43575419 -0.05085171 0.00000000)
		(0.45251397 -0.06995905 0.00000000)
		(0.46927374 -0.08863235 0.00000000)
		(0.48603352 -0.10675575 0.00000000)
		(0.50279330 -0.12421682 0.00000000)
		(0.51955307 -0.14090722 0.00000000)
		(0.53631285 -0.15672340 0.00000000)
		(0.55307263 -0.17156724 0.00000000)
		(0.56983240 -0.18534663 0.00000000)
		(0.58659218 -0.19797609 0.00000000)
		(0.60335196 -0.20937727 0.00000000)
		(0.62011173 -0.21947942 0.00000000)
		(0.63687151 -0.22821988 0.00000000)
		(0.65363128 -0.23554441 0.00000000)
		(0.67039106 -0.24140757 0.00000000)
		(0.68715084 -0.24577299 0.00000000)
		(0.70391061 -0.24861358 0.00000000)
		(0.72067039 -0.24991171 0.00000000)
		(0.73743017 -0.24965934 0.00000000)
		(0.75418994 -0.24785803 0.00000000)
		(0.77094972 -0.24451895 0.00000000)
		(0.78770950 -0.23966282 0.00000000)
		(0.80446927 -0.23331978 0.00000000)
		(0.82122905 -0.22552916 0.00000000)
		(0.83798883 -0.21633932 0.00000000)
		(0.85474860 -0.20580725 0.00000000)
		(0.87150838 -0.19399832 0.00000000)
		(0.88826816 -0.18098578 0.00000000)
		(0.90502793 -0.16685036 0.00000000)
		(0.92178771 -0.15167977 0.00000000)
		(0.93854749 -0.13556812 0.00000000)
		(0.95530726 -0.11861537 0.00000000)
		(0.97206704 -0.10092672 0.00000000)
		(0.98882682 -0.08261189 0.00000000)
		(1.00558659 -0.06378452 0.00000000)
		(1.02234637 -0.04456141 0.00000000)
		(1.03910615 -0.02506184 0.00000000)
		(1.05586592 -0.00540678 0.00000000)
		(1.07262570 0.01428183 0.00000000)
		(1.08938547 0.03388183 0.00000000)
		(1.10614525 0.05327162 0.00000000)
		(1.12290503 0.07233090 0.00000000)
		(1.13966480 0.09094142 0.00000000)
		(1.15642458 0.10898773 0.00000000)
		(1.17318436 0.12635785 0.00000000)
		(1.18994413 0.14294401 0.00000000)
		(1.20670391 0.15864333 0.00000000)
		(1.22346369 0.17335838 0.00000000)
		(1.24022346 0.18699788 0.00000000)
		(1.25698324 0.19947721 0.00000000)
		(1.27374302 0.21071893 0.00000000)
		(1.29050279 0.22065331 0.00000000)
		(1.30726257 0.22921871 0.00000000)
		(1.32402235 0.23636199 0.00000000)
		(1.34078212 0.24203882 0.00000000)
		(1.35754190 0.24621400 0.00000000)
		(1.37430168 0.24886160 0.00000000)
		(1.39106145 0.24996522 0.00000000)
		(1.40782123 0.24951800 0.00000000)
		(1.42458101 0.24752271 0.00000000)
		(1.44134078 0.24399174 0.00000000)
		(1.45810056 0.23894699 0.00000000)
		(1.47486034 0.23241976 0.00000000)
		(1.49162011 0.22445055 0.00000000)
		(1.50837989 0.21508880 0.00000000)
		(1.52513966 0.20439259 0.00000000)
		(1.54189944 0.19242829 0.00000000)
		(1.55865922 0.17927012 0.00000000)
		(1.57541899 0.16499971 0.00000000)
		(1.59217877 0.14970562 0.00000000)
		(1.60893855 0.13348271 0.00000000)
		(1.62569832 0.11643166 0.00000000)
		(1.64245810 0.09865823 0.00000000)
		(1.65921788 0.08027271 0.00000000)
		(1.67597765 0.06138915 0.00000000)
		(1.69273743 0.04212473 0.00000000)
		(1.70949721 0.02259895 0.00000000)
		(1.72625698 0.00293297 0.00000000)
		(1.74301676 -0.01675121 0.00000000)
		(1.75977654 -0.03633146 0.00000000)
		(1.77653631 -0.05568631 0.00000000)
		(1.79329609 -0.07469566 0.00000000)
		(1.81005587 -0.09324159 0.00000000)
		(1.82681564 -0.11120902 0.00000000)
		(1.84357542 -0.12848649 0.00000000)
		(1.86033520 -0.14496681 0.00000000)
		(1.87709497 -0.16054771 0.00000000)
		(1.89385475 -0.17513255 0.00000000)
		(1.91061453 -0.18863082 0.00000000)
		(1.92737430 -0.20095879 0.00000000)
		(1.94413408 -0.21203996 0.00000000)
		(1.96089385 -0.22180559 0.00000000)
		(1.97765363 -0.23019509 0.00000000)
		(1.99441341 -0.23715642 0.00000000)
		(2.01117318 -0.24264637 0.00000000)
		(2.02793296 -0.24663089 0.00000000)
		(2.04469274 -0.24908526 0.00000000)
		(2.06145251 -0.24999425 0.00000000)
		(2.07821229 -0.24935222 0.00000000)
		(2.09497207 -0.24716315 0.00000000)
		(2.11173184 -0.24344064 0.00000000)
		(2.12849162 -0.23820776 0.00000000)
		(2.14525140 -0.23149699 0.00000000)
		(2.16201117 -0.22334996 0.00000000)
		(2.17877095 -0.21381722 0.00000000)
		(2.19553073 -0.20295791 0.00000000)
		(2.21229050 -0.19083941 0.00000000)
		(2.22905028 -0.17753690 0.00000000)
		(2.24581006 -0.16313291 0.00000000)
		(2.26256983 -0.14771681 0.00000000)
		(2.27932961 -0.13138424 0.00000000)
		(2.29608939 -0.11423653 0.00000000)
		(2.31284916 -0.09638008 0.00000000)
		(2.32960894 -0.07792566 0.00000000)
		(2.34636872 -0.05898778 0.00000000)
		(2.36312849 -0.03968392 0.00000000)
		(2.37988827 -0.02013386 0.00000000)
		(2.39664804 -0.00045888 0.00000000)
		(2.41340782 0.01921895 0.00000000)
		(2.43016760 0.03877754 0.00000000)
		(2.44692737 0.05809554 0.00000000)
		(2.46368715 0.07705311 0.00000000)
		(2.48044693 0.09553262 0.00000000)
		(2.49720670 0.11341943 0.00000000)
		(2.51396648 0.13060256 0.00000000)
		(2.53072626 0.14697540 0.00000000)
		(2.54748603 0.16243638 0.00000000)
		(2.56424581 0.17688956 0.00000000)
		(2.58100559 0.19024528 0.00000000)
		(2.59776536 0.20242068 0.00000000)
		(2.61452514 0.21334022 0.00000000)
		(2.63128492 0.22293615 0.00000000)
		(2.64804469 0.23114893 0.00000000)
		(2.66480447 0.23792762 0.00000000)
		(2.68156425 0.24323015 0.00000000)
		(2.69832402 0.24702362 0.00000000)
		(2.71508380 0.24928451 0.00000000)
		(2.73184358 0.24999879 0.00000000)
		(2.74860335 0.24916202 0.00000000)
		(2.76536313 0.24677939 0.00000000)
		(2.78212291 0.24286569 0.00000000)
		(2.79888268 0.23744519 0.00000000)
		(2.81564246 0.23055154 0.00000000)
		(2.83240223 0.22222749 0.00000000)
		(2.84916201 0.21252470 0.00000000)
		(2.86592179 0.20150336 0.00000000)
		(2.88268156 0.18923184 0.00000000)
		(2.89944134 0.17578629 0.00000000)
		(2.91620112 0.16125013 0.00000000)
		(2.93296089 0.14571353 0.00000000)
		(2.95166480 0.13238645 0.00000000)
		(2.97036872 0.12046221 0.00000000)
		(2.98907263 0.10994083 0.00000000)
		(3.00777654 0.10082230 0.00000000)
		(3.02648045 0.09310662 0.00000000)
		(3.04518436 0.08679379 0.00000000)
		(3.06388827 0.08188382 0.00000000)
		(3.08259218 0.07837669 0.00000000)
		(3.10129609 0.07627241 0.00000000)
		(3.12000000 0.07557099 0.00000000)
		(3.14000000 0.07557099 0.00000000)
		(3.16000000 0.07557099 0.00000000)
		(3.18000000 0.07557099 0.00000000)
		(3.20000000 0.07557099 0.00000000)
		(3.22000000 0.07557099 0.00000000)
		(3.24000000 0.07557099 0.00000000)
		(3.26000000 0.07557099 0.00000000)
		(3.28000000 0.07557099 0.00000000)
		(3.30000000 0.07557099 0.00000000)
		(3.32000000 0.07557099 0.00000000)
		(3.34000000 0.07557099 0.00000000)
		(3.36000000 0.07557099 0.00000000)
		(3.38000000 0.07557099 0.00000000)
		(3.40000000 0.07557099 0.00000000)
		(3.42000000 0.07557099 0.00000000)
		(3.44000000 0.07557099 0.00000000)
		(3.46000000 0.07557099 0.00000000)
		(3.48000000 0.07557099 0.00000000)
		(3.50000000 0.07557099 0.00000000)
		(3.52000000 0.07557099 0.00000000)
		(3.54000000 0.07557099 0.00000000)
		(3.56000000 0.07557099 0.00000000)
		(3.58000000 0.07557099 0.00000000)
		(3.60000000 0.07557099 0.00000000)
		(3.62000000 0.07557099 0.00000000)
		(3.64000000 0.07557099 0.00000000)
		(3.66000000 0.07557099 0.00000000)
		(3.68000000 0.07557099 0.00000000)
		(3.70000000 0.07557099 0.00000000)
		(3.72000000 0.07557099 0.00000000)
		(3.74000000 0.07557099 0.00000000)
		(3.76000000 0.07557099 0.00000000)
		(3.78000000 0.07557099 0.00000000)
		(3.80000000 0.07557099 0.00000000)
		(3.82000000 0.07557099 0.00000000)
		(3.84000000 0.07557099 0.00000000)
		(3.86000000 0.07557099 0.00000000)
		(3.88000000 0.07557099 0.00000000)
		(3.90000000 0.07557099 0.00000000)
		(3.92000000 0.07557099 0.00000000)
		(3.94000000 0.07557099 0.00000000)
		(3.96000000 0.07557099 0.00000000)
		(3.98000000 0.07557099 0.00000000)
		(4.00000000 0.07557099 0.00000000)
	)
	polyLine 4 5
	(
		(-1.00000000 0.24075268 0.10000000)
		(-0.98000000 0.24075268 0.10000000)
		(-0.96000000 0.24075268 0.10000000)
		(-0.94000000 0.24075268 0.10000000)
		(-0.92000000 0.24075268 0.10000000)
		(-0.90000000 0.24075268 0.10000000)
		(-0.88000000 0.24075268 0.10000000)
		(-0.86000000 0.24075268 0.10000000)
		(-0.84000000 0.24075268 0.10000000)
		(-0.82000000 0.24075268 0.10000000)
		(-0.80000000 0.24075268 0.10000000)
		(-0.78000000 0.24075268 0.10000000)
		(-0.76000000 0.24075268 0.10000000)
		(-0.74000000 0.24075268 0.10000000)
		(-0.72000000 0.24075268 0.10000000)
		(-0.70000000 0.24075268 0.10000000)
		(-0.68000000 0.24075268 0.10000000)
		(-0.66000000 0.24075268 0.10000000)
		(-0.64000000 0.24075268 0.10000000)
		(-0.62000000 0.24075268 0.10000000)
		(-0.60000000 0.24075268 0.10000000)
		(-0.58000000 0.24075268 0.10000000)
		(-0.56000000 0.24075268 0.10000000)
		(-0.54000000 0.24075268 0.10000000)
		(-0.52000000 0.24075268 0.10000000)
		(-0.50000000 0.24075268 0.10000000)
		(-0.48000000 0.24075268 0.10000000)
		(-0.46000000 0.24075268 0.10000000)
		(-0.44000000 0.24075268 0.10000000)
		(-0.42000000 0.24075268 0.10000000)
		(-0.40000000 0.24075268 0.10000000)
		(-0.38000000 0.24075268 0.10000000)
		(-0.36000000 0.24075268 0.10000000)
		(-0.34000000 0.24075268 0.10000000)
		(-0.32000000 0.24075268 0.10000000)
		(-0.30000000 0.24075268 0.10000000)
		(-0.28000000 0.24075268 0.10000000)
		(-0.26000000 0.24075268 0.10000000)
		(-0.24000000 0.24075268 0.10000000)
		(-0.22000000 0.24075268 0.10000000)
		(-0.20000000 0.24075268 0.10000000)
		(-0.18000000 0.24075268 0.10000000)
		(-0.16000000 0.24075268 0.10000000)
		(-0.14000000 0.24075268 0.10000000)
		(-0.12000000 0.24075268 0.10000000)
		(-0.10000000 0.24075268 0.10000000)
		(-0.08162011 0.24082684 0.10000000)
		(-0.06324022 0.24104933 0.10000000)
		(-0.04486034 0.24142015 0.10000000)
		(-0.02648045 0.24193930 0.10000000)
		(-0.00810056 0.24260678 0.10000000)
		(0.01027933 0.24342258 0.10000000)
		(0.02865922 0.24438671 0.10000000)
		(0.04703911 0.24549917 0.10000000)
		(0.06541899 0.24675995 0.10000000)
		(0.08379888 0.24816907 0.10000000)
		(0.10055866 0.24502221 0.10000000)
		(0.11731844 0.24035518 0.10000000)
		(0.13407821 0.23419694 0.10000000)
		(0.15083799 0.22658568 0.10000000)
		(0.16759777 0.21756864 0.10000000)
		(0.18435754 0.20720176 0.10000000)
		(0.20111732 0.19554935 0.10000000)
		(0.21787709 0.18268371 0.10000000)
		(0.23463687 0.16868466 0.10000000)
		(0.25139665 0.15363906 0.10000000)
		(0.26815642 0.13764024 0.10000000)
		(0.28491620 0.12078748 0.10000000)
		(0.30167598 0.10318532 0.10000000)
		(0.31843575 0.08494298 0.10000000)
		(0.33519553 0.06617363 0.10000000)
		(0.35195531 0.04699373 0.10000000)
		(0.36871508 0.02752227 0.10000000)
		(0.38547486 0.00788005 0.10000000)
		(0.40223464 -0.01181105 0.10000000)
		(0.41899441 -0.03142888 0.10000000)
		(0.43575419 -0.05085171 0.10000000)
		(0.45251397 -0.06995905 0.10000000)
		(0.46927374 -0.08863235 0.10000000)
		(0.48603352 -0.10675575 0.10000000)
		(0.50279330 -0.12421682 0.10000000)
		(0.51955307 -0.14090722 0.10000000)
		(0.53631285 -0.15672340 0.10000000)
		(0.55307263 -0.17156724 0.10000000)
		(0.56983240 -0.18534663 0.10000000)
		(0.58659218 -0.19797609 0.10000000)
		(0.60335196 -0.20937727 0.10000000)
		(0.62011173 -0.21947942 0.10000000)
		(0.63687151 -0.22821988 0.10000000)
		(0.65363128 -0.23554441 0.10000000)
		(0.67039106 -0.24140757 0.10000000)
		(0.68715084 -0.24577299 0.10000000)
		(0.70391061 -0.24861358 0.10000000)
		(0.72067039 -0.24991171 0.10000000)
		(0.73743017 -0.24965934 0.10000000)
		(0.75418994 -0.24785803 0.10000000)
		(0.77094972 -0.24451895 0.10000000)
		(0.78770950 -0.23966282 0.10000000)
		(0.80446927 -0.23331978 0.10000000)
		(0.82122905 -0.22552916 0.10000000)
		(0.83798883 -0.21633932 0.10000000)
		(0.85474860 -0.20580725 0.10000000)
		(0.87150838 -0.19399832 0.10000000)
		(0.88826816 -0.18098578 0.10000000)
		(0.90502793 -0.16685036 0.10000000)
		(0.92178771 -0.15167977 0.10000000)
		(0.93854749 -0.13556812 0.10000000)
		(0.95530726 -0.11861537 0.10000000)
		(0.97206704 -0.10092672 0.10000000)
		(0.98882682 -0.08261189 0.10000000)
		(1.00558659 -0.06378452 0.10000000)
		(1.02234637 -0.04456141 0.10000000)
		(1.03910615 -0.02506184 0.10000000)
		(1.05586592 -0.00540678 0.10000000)
		(1.07262570 0.01428183 0.10000000)
		(1.08938547 0.03388183 0.10000000)
		(1.10614525 0.05327162 0.10000000)
		(1.12290503 0.07233090 0.10000000)
		(1.13966480 0.09094142 0.10000000)
		(1.15642458 0.10898773 0.10000000)
		(1.17318436 0.12635785 0.10000000)
		(1.18994413 0.14294401 0.10000000)
		(1.20670391 0.15864333 0.10000000)
		(1.22346369 0.17335838 0.10000000)
		(1.24022346 0.18699788 0.10000000)
		(1.25698324 0.19947721 0.10000000)
		(1.27374302 0.21071893 0.10000000)
		(1.29050279 0.22065331 0.10000000)
		(1.30726257 0.22921871 0.10000000)
		(1.32402235 0.23636199 0.10000000)
		(1.34078212 0.24203882 0.10000000)
		(1.35754190 0.24621400 0.10000000)
		(1.37430168 0.24886160 0.10000000)
		(1.39106145 0.24996522 0.10000000)
		(1.40782123 0.24951800 0.10000000)
		(1.42458101 0.24752271 0.10000000)
		(1.44134078 0.24399174 0.10000000)
		(1.45810056 0.23894699 0.10000000)
		(1.47486034 0.23241976 0.10000000)
		(1.49162011 0.22445055 0.10000000)
		(1.50837989 0.21508880 0.10000000)
		(1.52513966 0.20439259 0.10000000)
		(1.54189944 0.19242829 0.10000000)
		(1.55865922 0.17927012 0.10000000)
		(1.57541899 0.16499971 0.10000000)
		(1.59217877 0.14970562 0.10000000)
		(1.60893855 0.13348271 0.10000000)
		(1.62569832 0.11643166 0.10000000)
		(1.64245810 0.09865823 0.10000000)
		(1.65921788 0.08027271 0.10000000)
		(1.67597765 0.06138915 0.10000000)
		(1.69273743 0.04212473 0.10000000)
		(1.70949721 0.02259895 0.10000000)
		(1.72625698 0.00293297 0.10000000)
		(1.74301676 -0.01675121 0.10000000)
		(1.75977654 -0.03633146 0.10000000)
		(1.77653631 -0.05568631 0.10000000)
		(1.79329609 -0.07469566 0.10000000)
		(1.81005587 -0.09324159 0.10000000)
		(1.82681564 -0.11120902 0.10000000)
		(1.84357542 -0.12848649 0.10000000)
		(1.86033520 -0.14496681 0.10000000)
		(1.87709497 -0.16054771 0.10000000)
		(1.89385475 -0.17513255 0.10000000)
		(1.91061453 -0.18863082 0.10000000)
		(1.92737430 -0.20095879 0.10000000)
		(1.94413408 -0.21203996 0.10000000)
		(1.96089385 -0.22180559 0.10000000)
		(1.97765363 -0.23019509 0.10000000)
		(1.99441341 -0.23715642 0.10000000)
		(2.01117318 -0.24264637 0.10000000)
		(2.02793296 -0.24663089 0.10000000)
		(2.04469274 -0.24908526 0.10000000)
		(2.06145251 -0.24999425 0.10000000)
		(2.07821229 -0.24935222 0.10000000)
		(2.09497207 -0.24716315 0.10000000)
		(2.11173184 -0.24344064 0.10000000)
		(2.12849162 -0.23820776 0.10000000)
		(2.14525140 -0.23149699 0.10000000)
		(2.16201117 -0.22334996 0.10000000)
		(2.17877095 -0.21381722 0.10000000)
		(2.19553073 -0.20295791 0.10000000)
		(2.21229050 -0.19083941 0.10000000)
		(2.22905028 -0.17753690 0.10000000)
		(2.24581006 -0.16313291 0.10000000)
		(2.26256983 -0.14771681 0.10000000)
		(2.27932961 -0.13138424 0.10000000)
		(2.29608939 -0.11423653 0.10000000)
		(2.31284916 -0.09638008 0.10000000)
		(2.32960894 -0.07792566 0.10000000)
		(2.34636872 -0.05898778 0.10000000)
		(2.36312849 -0.03968392 0.10000000)
		(2.37988827 -0.02013386 0.10000000)
		(2.39664804 -0.00045888 0.10000000)
		(2.41340782 0.01921895 0.10000000)
		(2.43016760 0.03877754 0.10000000)
		(2.44692737 0.05809554 0.10000000)
		(2.46368715 0.07705311 0.10000000)
		(2.48044693 0.09553262 0.10000000)
		(2.49720670 0.11341943 0.10000000)
		(2.51396648 0.13060256 0.10000000)
		(2.53072626 0.14697540 0.10000000)
		(2.54748603 0.16243638 0.10000000)
		(2.56424581 0.17688956 0.10000000)
		(2.58100559 0.19024528 0.10000000)
		(2.59776536 0.20242068 0.10000000)
		(2.61452514 0.21334022 0.10000000)
		(2.63128492 0.22293615 0.10000000)
		(2.64804469 0.23114893 0.10000000)
		(2.66480447 0.23792762 0.10000000)
		(2.68156425 0.24323015 0.10000000)
		(2.69832402 0.24702362 0.10000000)
		(2.71508380 0.24928451 0.10000000)
		(2.73184358 0.24999879 0.10000000)
		(2.74860335 0.24916202 0.10000000)
		(2.76536313 0.24677939 0.10000000)
		(2.78212291 0.24286569 0.10000000)
		(2.79888268 0.23744519 0.10000000)
		(2.81564246 0.23055154 0.10000000)
		(2.83240223 0.22222749 0.10000000)
		(2.84916201 0.21252470 0.10000000)
		(2.86592179 0.20150336 0.10000000)
		(2.88268156 0.18923184 0.10000000)
		(2.89944134 0.17578629 0.10000000)
		(2.91620112 0.16125013 0.10000000)
		(2.93296089 0.14571353 0.10000000)
		(2.95166480 0.13238645 0.10000000)
		(2.97036872 0.12046221 0.10000000)
		(2.98907263 0.10994083 0.10000000)
		(3.00777654 0.10082230 0.10000000)
		(3.02648045 0.09310662 0.10000000)
		(3.04518436 0.08679379 0.10000000)
		(3.06388827 0.08188382 0.10000000)
		(3.08259218 0.07837669 0.10000000)
		(3.10129609 0.07627241 0.10000000)
		(3.12000000 0.07557099 0.10000000)
		(3.14000000 0.07557099 0.10000000)
		(3.16000000 0.07557099 0.10000000)
		(3.18000000 0.07557099 0.10000000)
		(3.20000000 0.07557099 0.10000000)
		(3.22000000 0.07557099 0.10000000)
		(3.24000000 0.07557099 0.10000000)
		(3.26000000 0.07557099 0.10000000)
		(3.28000000 0.07557099 0.10000000)
		(3.30000000 0.07557099 0.10000000)
		(3.32000000 0.07557099 0.10000000)
		(3.34000000 0.07557099 0.10000000)
		(3.36000000 0.07557099 0.10000000)
		(3.38000000 0.07557099 0.10000000)
		(3.40000000 0.07557099 0.10000000)
		(3.42000000 0.07557099 0.10000000)
		(3.44000000 0.07557099 0.10000000)
		(3.46000000 0.07557099 0.10000000)
		(3.48000000 0.07557099 0.10000000)
		(3.50000000 0.07557099 0.10000000)
		(3.52000000 0.07557099 0.10000000)
		(3.54000000 0.07557099 0.10000000)
		(3.56000000 0.07557099 0.10000000)
		(3.58000000 0.07557099 0.10000000)
		(3.60000000 0.07557099 0.10000000)
		(3.62000000 0.07557099 0.10000000)
		(3.64000000 0.07557099 0.10000000)
		(3.66000000 0.07557099 0.10000000)
		(3.68000000 0.07557099 0.10000000)
		(3.70000000 0.07557099 0.10000000)
		(3.72000000 0.07557099 0.10000000)
		(3.74000000 0.07557099 0.10000000)
		(3.76000000 0.07557099 0.10000000)
		(3.78000000 0.07557099 0.10000000)
		(3.80000000 0.07557099 0.10000000)
		(3.82000000 0.07557099 0.10000000)
		(3.84000000 0.07557099 0.10000000)
		(3.86000000 0.07557099 0.10000000)
		(3.88000000 0.07557099 0.10000000)
		(3.90000000 0.07557099 0.10000000)
		(3.92000000 0.07557099 0.10000000)
		(3.94000000 0.07557099 0.10000000)
		(3.96000000 0.07557099 0.10000000)
		(3.98000000 0.07557099 0.10000000)
		(4.00000000 0.07557099 0.10000000)
	)
	polyLine 3 2
	(
		(-1.00000000 0.74075268 0.00000000)
		(-0.98000000 0.74437693 0.00000000)
		(-0.96000000 0.74800119 0.00000000)
		(-0.94000000 0.75162544 0.00000000)
		(-0.92000000 0.75524970 0.00000000)
		(-0.90000000 0.75887396 0.00000000)
		(-0.88000000 0.76249821 0.00000000)
		(-0.86000000 0.76612247 0.00000000)
		(-0.84000000 0.76974672 0.00000000)
		(-0.82000000 0.77337098 0.00000000)
		(-0.80000000 0.77699523 0.00000000)
		(-0.78000000 0.78061949 0.00000000)
		(-0.76000000 0.78424374 0.00000000)
		(-0.74000000 0.78786800 0.00000000)
		(-0.72000000 0.79149225 0.00000000)
		(-0.70000000 0.79511651 0.00000000)
		(-0.68000000 0.79874076 0.00000000)
		(-0.66000000 0.80236502 0.00000000)
		(-0.64000000 0.80598927 0.00000000)
		(-0.62000000 0.80961353 0.00000000)
		(-0.60000000 0.81323778 0.00000000)
		(-0.58000000 0.81686204 0.00000000)
		(-0.56000000 0.82048629 0.00000000)
		(-0.54000000 0.82411055 0.00000000)
		(-0.52000000 0.82773480 0.00000000)
		(-0.50000000 0.83135906 0.00000000)
		(-0.48000000 0.83498331 0.00000000)
		(-0.46000000 0.83860757 0.00000000)
		(-0.44000000 0.84223182 0.00000000)
		(-0.42000000 0.84585608 0.00000000)
		(-0.40000000 0.84948034 0.00000000)
		(-0.38000000 0.85310459 0.00000000)
		(-0.36000000 0.85672885 0.00000000)
		(-0.34000000 0.86035310 0.00000000)
		(-0.32000000 0.86397736 0.00000000)
		(-0.30000000 0.86760161 0.00000000)
		(-0.28000000 0.87122587 0.00000000)
		(-0.26000000 0.87485012 0.00000000)
		(-0.24000000 0.87847438 0.00000000)
		(-0.22000000 0.88209863 0.00000000)
		(-0.20000000 0.88572289 0.00000000)
		(-0.18000000 0.88934714 0.00000000)
		(-0.16000000 0.89297140 0.00000000)
		(-0.14000000 0.89659565 0.00000000)
		(-0.12000000 0.90021991 0.00000000)
		(-0.10000000 0.90384416 0.00000000)
		(-0.08162011 0.90629072 0.00000000)
		(-0.06324022 0.90880213 0.00000000)
		(-0.04486034 0.91137839 0.00000000)
		(-0.02648045 0.91401951 0.00000000)
		(-0.00810056 0.91672549 0.00000000)
		(0.01027933 0.91949632 0.00000000)
		(0.02865922 0.92233200 0.00000000)
		(0.04703911 0.92523254 0.00000000)
		(0.06541899 0.92819794 0.00000000)
		(0.08379888 0.93122819 0.00000000)
		(0.10055866 0.92576008 0.00000000)
		(0.11731844 0.91765047 0.00000000)
		(0.13407821 0.90694967 0.00000000)
		(0.15083799 0.89372406 0.00000000)
		(0.16759777 0.87805570 0.00000000)
		(0.18435754 0.86004180 0.00000000)
		(0.20111732 0.83979413 0.00000000)
		(0.21787709 0.81743829 0.00000000)
		(0.23463687 0.79311300 0.00000000)
		(0.25139665 0.76696918 0.00000000)
		(0.26815642 0.73916902 0.00000000)
		(0.28491620 0.70988500 0.00000000)
		(0.30167598 0.67929881 0.00000000)
		(0.31843575 0.64760021 0.00000000)
		(0.33519553 0.61498587 0.00000000)
		(0.35195531 0.58165813 0.00000000)
		(0.36871508 0.54782376 0.00000000)
		(0.38547486 0.51369269 0.00000000)
		(0.40223464 0.47947666 0.00000000)
		(0.41899441 0.44538797 0.00000000)
		(0.43575419 0.41163810 0.00000000)
		(0.45251397 0.37843644 0.00000000)
		(0.46927374 0.34598900 0.00000000)
		(0.48603352 0.31449707 0.00000000)
		(0.50279330 0.28415604 0.00000000)
		(0.51955307 0.25515415 0.00000000)
		(0.53631285 0.22767135 0.00000000)
		(0.55307263 0.20187812 0.00000000)
		(0.56983240 0.17793451 0.00000000)
		(0.58659218 0.15598907 0.00000000)
		(0.60335196 0.13617794 0.00000000)
		(0.62011173 0.11862405 0.00000000)
		(0.63687151 0.10343629 0.00000000)
		(0.65363128 0.09070890 0.00000000)
		(0.67039106 0.08052085 0.00000000)
		(0.68715084 0.07293533 0.00000000)
		(0.70391061 0.06799941 0.00000000)
		(0.72067039 0.06574372 0.00000000)
		(0.73743017 0.06618226 0.00000000)
		(0.75418994 0.06931229 0.00000000)
		(0.77094972 0.07511440 0.00000000)
		(0.78770950 0.08355259 0.00000000)
		(0.80446927 0.09457452 0.00000000)
		(0.82122905 0.10811179 0.00000000)
		(0.83798883 0.12408042 0.00000000)
		(0.85474860 0.14238134 0.00000000)
		(0.87150838 0.16290100 0.00000000)
		(0.88826816 0.18551210 0.00000000)
		(0.90502793 0.21007435 0.00000000)
		(0.92178771 0.23643536 0.00000000)
		(0.93854749 0.26443159 0.00000000)
		(0.95530726 0.29388933 0.00000000)
		(0.97206704 0.32462583 0.00000000)
		(0.98882682 0.35645038 0.00000000)
		(1.00558659 0.38916555 0.00000000)
		(1.02234637 0.42256836 0.00000000)
		(1.03910615 0.45645158 0.00000000)
		(1.05586592 0.49060497 0.00000000)
		(1.07262570 0.52481666 0.00000000)
		(1.08938547 0.55887438 0.00000000)
		(1.10614525 0.59256683 0.00000000)
		(1.12290503 0.62568497 0.00000000)
		(1.13966480 0.65802334 0.00000000)
		(1.15642458 0.68938130 0.00000000)
		(1.17318436 0.71956429 0.00000000)
		(1.18994413 0.74838506 0.00000000)
		(1.20670391 0.77566479 0.00000000)
		(1.22346369 0.80123424 0.00000000)
		(1.24022346 0.82493477 0.00000000)
		(1.25698324 0.84661933 0.00000000)
		(1.27374302 0.86615339 0.00000000)
		(1.29050279 0.88341575 0.00000000)
		(1.30726257 0.89829932 0.00000000)
		(1.32402235 0.91071175 0.00000000)
		(1.34078212 0.92057604 0.00000000)
		(1.35754190 0.92783098 0.00000000)
		(1.37430168 0.93243157 0.00000000)
		(1.39106145 0.93434925 0.00000000)
		(1.40782123 0.93357214 0.00000000)
		(1.42458101 0.93010506 0.00000000)
		(1.44134078 0.92396950 0.00000000)
		(1.45810056 0.91520355 0.00000000)
		(1.47486034 0.90386159 0.00000000)
		(1.49162011 0.89001398 0.00000000)
		(1.50837989 0.87374664 0.00000000)
		(1.52513966 0.85516049 0.00000000)
		(1.54189944 0.83437085 0.00000000)
		(1.55865922 0.81150670 0.00000000)
		(1.57541899 0.78670990 0.00000000)
		(1.59217877 0.76013428 0.00000000)
		(1.60893855 0.73194474 0.00000000)
		(1.62569832 0.70231616 0.00000000)
		(1.64245810 0.67143236 0.00000000)
		(1.65921788 0.63948496 0.00000000)
		(1.67597765 0.60667217 0.00000000)
		(1.69273743 0.57319756 0.00000000)
		(1.70949721 0.53926882 0.00000000)
		(1.72625698 0.50509644 0.00000000)
		(1.74301676 0.47089245 0.00000000)
		(1.75977654 0.43686904 0.00000000)
		(1.77653631 0.40323731 0.00000000)
		(1.79329609 0.37020592 0.00000000)
		(1.81005587 0.33797980 0.00000000)
		(1.82681564 0.30675889 0.00000000)
		(1.84357542 0.27673689 0.00000000)
		(1.86033520 0.24810006 0.00000000)
		(1.87709497 0.22102607 0.00000000)
		(1.89385475 0.19568290 0.00000000)
		(1.91061453 0.17222778 0.00000000)
		(1.92737430 0.15080623 0.00000000)
		(1.94413408 0.13155115 0.00000000)
		(1.96089385 0.11458201 0.00000000)
		(1.97765363 0.10000408 0.00000000)
		(1.99441341 0.08790782 0.00000000)
		(2.01117318 0.07836827 0.00000000)
		(2.02793296 0.07144461 0.00000000)
		(2.04469274 0.06717980 0.00000000)
		(2.06145251 0.06560031 0.00000000)
		(2.07821229 0.06671592 0.00000000)
		(2.09497207 0.07051973 0.00000000)
		(2.11173184 0.07698812 0.00000000)
		(2.12849162 0.08608097 0.00000000)
		(2.14525140 0.09774186 0.00000000)
		(2.16201117 0.11189845 0.00000000)
		(2.17877095 0.12846291 0.00000000)
		(2.19553073 0.14733246 0.00000000)
		(2.21229050 0.16839004 0.00000000)
		(2.22905028 0.19150500 0.00000000)
		(2.24581006 0.21653394 0.00000000)
		(2.26256983 0.24332155 0.00000000)
		(2.27932961 0.27170166 0.00000000)
		(2.29608939 0.30149817 0.00000000)
		(2.31284916 0.33252624 0.00000000)
		(2.32960894 0.36459335 0.00000000)
		(2.34636872 0.39750055 0.00000000)
		(2.36312849 0.43104368 0.00000000)
		(2.37988827 0.46501463 0.00000000)
		(2.39664804 0.49920264 0.00000000)
		(2.41340782 0.53339560 0.00000000)
		(2.43016760 0.56738136 0.00000000)
		(2.44692737 0.60094907 0.00000000)
		(2.46368715 0.63389047 0.00000000)
		(2.48044693 0.66600119 0.00000000)
		(2.49720670 0.69708200 0.00000000)
		(2.51396648 0.72694007 0.00000000)
		(2.53072626 0.75539015 0.00000000)
		(2.54748603 0.78225574 0.00000000)
		(2.56424581 0.80737015 0.00000000)