/*--------------------------------*- C++ -*----------------------------------*\\
/*--------------------------------*- C++ -*----------------------------------*\\
| =========                 |                                                 |
| \\\\      /  F ield         | OpenFOAM: The Open Source CFD Toolbox           |
|  \\\\    /   O peration     | Version:  v2012                                 |
|   \\\\  /    A nd           | Website:  www.openfoam.com                      |
|    \\\\/     M anipulation  |                                                 |
\\*---------------------------------------------------------------------------*/
FoamFile
{
    version     2.0;
    format      ascii;
    class       dictionary;
    object      blockMeshDict;
}
// * * * * * * * * * * * * * * * * * * * * * * * * * * * * * * * * * * * * * //

scale   0.01;

xmin -1;
xmax 5;
ymin 0;
ymax 0.5;
zmin 0;
zmax 0.1;

vertices
(
    (-1.00000000 0.17404225 0.00000000)
    (4.00000000 0.12752027 0.00000000)
    (4.00000000 0.62752027 0.00000000)
    (-1.00000000 0.67404225 0.00000000)
    (-1.00000000 0.17404225 0.10000000)
    (4.00000000 0.12752027 0.10000000)
    (4.00000000 0.62752027 0.10000000)
    (-1.00000000 0.67404225 0.10000000)
);

blocks
(
    hex (0 1 2 3 4 5 6 7) (200 20 1) simpleGrading (1 1 1)
);

edges
(
	polyLine 0 1
	(
		(-1.00000000 0.17404225 0.00000000)
		(-0.98000000 0.17404225 0.00000000)
		(-0.96000000 0.17404225 0.00000000)
		(-0.94000000 0.17404225 0.00000000)
		(-0.92000000 0.17404225 0.00000000)
		(-0.90000000 0.17404225 0.00000000)
		(-0.88000000 0.17404225 0.00000000)
		(-0.86000000 0.17404225 0.00000000)
		(-0.84000000 0.17404225 0.00000000)
		(-0.82000000 0.17404225 0.00000000)
		(-0.80000000 0.17404225 0.00000000)
		(-0.78000000 0.17404225 0.00000000)
		(-0.76000000 0.17404225 0.00000000)
		(-0.74000000 0.17404225 0.00000000)
		(-0.72000000 0.17404225 0.00000000)
		(-0.70000000 0.17404225 0.00000000)
		(-0.68000000 0.17404225 0.00000000)
		(-0.66000000 0.17404225 0.00000000)
		(-0.64000000 0.17404225 0.00000000)
		(-0.62000000 0.17404225 0.00000000)
		(-0.60000000 0.17404225 0.00000000)
		(-0.58000000 0.17404225 0.00000000)
		(-0.56000000 0.17404225 0.00000000)
		(-0.54000000 0.17404225 0.00000000)
		(-0.52000000 0.17404225 0.00000000)
		(-0.50000000 0.17404225 0.00000000)
		(-0.48000000 0.17404225 0.00000000)
		(-0.46000000 0.17404225 0.00000000)
		(-0.44000000 0.17404225 0.00000000)
		(-0.42000000 0.17404225 0.00000000)
		(-0.40000000 0.17404225 0.00000000)
		(-0.38000000 0.17404225 0.00000000)
		(-0.36000000 0.17404225 0.00000000)
		(-0.34000000 0.17404225 0.00000000)
		(-0.32000000 0.17404225 0.00000000)
		(-0.30000000 0.17404225 0.00000000)
		(-0.28000000 0.17404225 0.00000000)
		(-0.26000000 0.17404225 0.00000000)
		(-0.24000000 0.17404225 0.00000000)
		(-0.22000000 0.17404225 0.00000000)
		(-0.20000000 0.17404225 0.00000000)
		(-0.18000000 0.17404225 0.00000000)
		(-0.16000000 0.17404225 0.00000000)
		(-0.14000000 0.17404225 0.00000000)
		(-0.12000000 0.17404225 0.00000000)
		(-0.10000000 0.17404225 0.00000000)
		(-0.08162011 0.17460599 0.00000000)
		(-0.06324022 0.17629723 0.00000000)
		(-0.04486034 0.17911595 0.00000000)
		(-0.02648045 0.18306217 0.00000000)
		(-0.00810056 0.18813587 0.00000000)
		(0.01027933 0.19433707 0.00000000)
		(0.02865922 0.20166575 0.00000000)
		(0.04703911 0.21012193 0.00000000)
		(0.06541899 0.21970559 0.00000000)
		(0.08379888 0.23041674 0.00000000)
		(0.10055866 0.23746728 0.00000000)
		(0.11731844 0.24298126 0.00000000)
		(0.13407821 0.24692301 0.00000000)
		(0.15083799 0.24926702 0.00000000)
		(0.16759777 0.24999813 0.00000000)
		(0.18435754 0.24911160 0.00000000)
		(0.20111732 0.24661318 0.00000000)
		(0.21787709 0.24251903 0.00000000)
		(0.23463687 0.23685563 0.00000000)
		(0.25139665 0.22965964 0.00000000)
		(0.26815642 0.22097761 0.00000000)
		(0.28491620 0.21086574 0.00000000)
		(0.30167598 0.19938943 0.00000000)
		(0.31843575 0.18662296 0.00000000)
		(0.33519553 0.17264893 0.00000000)
		(0.35195531 0.15755776 0.00000000)
		(0.36871508 0.14144710 0.00000000)
		(0.38547486 0.12442119 0.00000000)
		(0.40223464 0.10659021 0.00000000)
		(0.41899441 0.08806952 0.00000000)
		(0.43575419 0.06897898 0.00000000)
		(0.45251397 0.04944209 0.00000000)
		(0.46927374 0.02958529 0.00000000)
		(0.48603352 0.00953706 0.00000000)
		(0.50279330 -0.01057289 0.00000000)
		(0.51955307 -0.03061442 0.00000000)
		(0.53631285 -0.05045786 0.00000000)
		(0.55307263 -0.06997481 0.00000000)
		(0.56983240 -0.08903898 0.00000000)
		(0.58659218 -0.10752702 0.00000000)
		(0.60335196 -0.12531929 0.00000000)
		(0.62011173 -0.14230067 0.00000000)
		(0.63687151 -0.15836129 0.00000000)
		(0.65363128 -0.17339721 0.00000000)
		(0.67039106 -0.18731115 0.00000000)
		(0.68715084 -0.20001308 0.00000000)
		(0.70391061 -0.21142081 0.00000000)
		(0.72067039 -0.22146052 0.00000000)
		(0.73743017 -0.23006725 0.00000000)
		(0.75418994 -0.23718531 0.00000000)
		(0.77094972 -0.24276865 0.00000000)
		(0.78770950 -0.24678112 0.00000000)
		(0.80446927 -0.24919678 0.00000000)
		(0.82122905 -0.24999999 0.00000000)
		(0.83798883 -0.24918555 0.00000000)
		(0.85474860 -0.24675874 0.00000000)
		(0.87150838 -0.24273525 0.00000000)
		(0.88826816 -0.23714112 0.00000000)
		(0.90502793 -0.23001255 0.00000000)
		(0.92178771 -0.22139567 0.00000000)
		(0.93854749 -0.21134622 0.00000000)
		(0.95530726 -0.19992924 0.00000000)
		(0.97206704 -0.18721860 0.00000000)
		(0.98882682 -0.17329655 0.00000000)
		(1.00558659 -0.15825317 0.00000000)
		(1.02234637 -0.14218579 0.00000000)
		(1.03910615 -0.12519839 0.00000000)
		(1.05586592 -0.10740088 0.00000000)
		(1.07262570 -0.08890843 0.00000000)
		(1.08938547 -0.06984069 0.00000000)
		(1.10614525 -0.05032103 0.00000000)
		(1.12290503 -0.03047577 0.00000000)
		(1.13966480 -0.01043332 0.00000000)
		(1.15642458 0.00967665 0.00000000)
		(1.17318436 0.02972400 0.00000000)
		(1.18994413 0.04957902 0.00000000)
		(1.20670391 0.06911324 0.00000000)
		(1.22346369 0.08820025 0.00000000)
		(1.24022346 0.10671656 0.00000000)
		(1.25698324 0.12454234 0.00000000)
		(1.27374302 0.14156227 0.00000000)
		(1.29050279 0.15766620 0.00000000)
		(1.30726257 0.17274994 0.00000000)
		(1.32402235 0.18671589 0.00000000)
		(1.34078212 0.19947367 0.00000000)
		(1.35754190 0.21094075 0.00000000)
		(1.37430168 0.22104291 0.00000000)
		(1.39106145 0.22971480 0.00000000)
		(1.40782123 0.23690029 0.00000000)
		(1.42458101 0.24255291 0.00000000)
		(1.44134078 0.24663606 0.00000000)
		(1.45810056 0.24912333 0.00000000)
		(1.47486034 0.24999863 0.00000000)
		(1.49162011 0.24925629 0.00000000)
		(1.50837989 0.24690112 0.00000000)
		(1.52513966 0.24294835 0.00000000)
		(1.54189944 0.23742356 0.00000000)
		(1.55865922 0.23036251 0.00000000)
		(1.57541899 0.22181087 0.00000000)
		(1.59217877 0.21182399 0.00000000)
		(1.60893855 0.20046648 0.00000000)
		(1.62569832 0.18781183 0.00000000)
		(1.64245810 0.17394194 0.00000000)
		(1.65921788 0.15894653 0.00000000)
		(1.67597765 0.14292265 0.00000000)
		(1.69273743 0.12597398 0.00000000)
		(1.70949721 0.10821018 0.00000000)
		(1.72625698 0.08974619 0.00000000)
		(1.74301676 0.07070150 0.00000000)
		(1.75977654 0.05119933 0.00000000)
		(1.77653631 0.03136586 0.00000000)
		(1.79329609 0.01132944 0.00000000)
		(1.81005587 -0.00878029 0.00000000)
		(1.82681564 -0.02883320 0.00000000)
		(1.84357542 -0.04869955 0.00000000)
		(1.86033520 -0.06825078 0.00000000)
		(1.87709497 -0.08736039 0.00000000)
		(1.89385475 -0.10590472 0.00000000)
		(1.91061453 -0.12376379 0.00000000)
		(1.92737430 -0.14082204 0.00000000)
		(1.94413408 -0.15696908 0.00000000)
		(1.96089385 -0.17210045 0.00000000)
		(1.97765363 -0.18611822 0.00000000)
		(1.99441341 -0.19893170 0.00000000)
		(2.01117318 -0.21045797 0.00000000)
		(2.02793296 -0.22062246 0.00000000)
		(2.04469274 -0.22935938 0.00000000)
		(2.06145251 -0.23661222 0.00000000)
		(2.07821229 -0.24233404 0.00000000)
		(2.09497207 -0.24648782 0.00000000)
		(2.11173184 -0.24904668 0.00000000)
		(2.12849162 -0.24999405 0.00000000)
		(2.14525140 -0.24932382 0.00000000)
		(2.16201117 -0.24704032 0.00000000)
		(2.17877095 -0.24315832 0.00000000)
		(2.19553073 -0.23770295 0.00000000)
		(2.21229050 -0.23070950 0.00000000)
		(2.22905028 -0.22222322 0.00000000)
		(2.24581006 -0.21229903 0.00000000)
		(2.26256983 -0.20100113 0.00000000)
		(2.27932961 -0.18840265 0.00000000)
		(2.29608939 -0.17458508 0.00000000)
		(2.31284916 -0.15963785 0.00000000)
		(2.32960894 -0.14365767 0.00000000)
		(2.34636872 -0.12674794 0.00000000)
		(2.36312849 -0.10901808 0.00000000)
		(2.37988827 -0.09058280 0.00000000)
		(2.39664804 -0.07156140 0.00000000)
		(2.41340782 -0.05207696 0.00000000)
		(2.43016760 -0.03225555 0.00000000)
		(2.44692737 -0.01222542 0.00000000)
		(2.46368715 0.00788381 0.00000000)
		(2.48044693 0.02794202 0.00000000)
		(2.49720670 0.04781944 0.00000000)
		(2.51396648 0.06738744 0.00000000)
		(2.53072626 0.08651940 0.00000000)
		(2.54748603 0.10509152 0.00000000)
		(2.56424581 0.12298365 0.00000000)
		(2.58100559 0.14008000 0.00000000)
		(2.59776536 0.15626995 0.00000000)
		(2.61452514 0.17144874 0.00000000)
		(2.63128492 0.18551815 0.00000000)
		(2.64804469 0.19838716 0.00000000)
		(2.66480447 0.20997248 0.00000000)
		(2.68156425 0.22019916 0.00000000)
		(2.69832402 0.22900102 0.00000000)
		(2.71508380 0.23632111 0.00000000)
		(2.73184358 0.24211206 0.00000000)
		(2.74860335 0.24633641 0.00000000)
		(2.76536313 0.24896682 0.00000000)
		(2.78212291 0.24998626 0.00000000)
		(2.79888268 0.24938815 0.00000000)
		(2.81564246 0.24717634 0.00000000)
		(2.83240223 0.24336517 0.00000000)
		(2.84916201 0.23797927 0.00000000)
		(2.86592179 0.23105352 0.00000000)
		(2.88268156 0.22263271 0.00000000)
		(2.89944134 0.21277133 0.00000000)
		(2.91620112 0.20153320 0.00000000)
		(2.93296089 0.18899103 0.00000000)
		(2.95166480 0.17731159 0.00000000)
		(2.97036872 0.16686156 0.00000000)
		(2.98907263 0.15764095 0.00000000)
		(3.00777654 0.14964975 0.00000000)
		(3.02648045 0.14288796 0.00000000)
		(3.04518436 0.13735559 0.00000000)
		(3.06388827 0.13305264 0.00000000)
		(3.08259218 0.12997910 0.00000000)
		(3.10129609 0.12813498 0.00000000)
		(3.12000000 0.12752027 0.00000000)
		(3.14000000 0.12752027 0.00000000)
		(3.16000000 0.12752027 0.00000000)
		(3.18000000 0.12752027 0.00000000)
		(3.20000000 0.12752027 0.00000000)
		(3.22000000 0.12752027 0.00000000)
		(3.24000000 0.12752027 0.00000000)
		(3.26000000 0.12752027 0.00000000)
		(3.28000000 0.12752027 0.00000000)
		(3.30000000 0.12752027 0.00000000)
		(3.32000000 0.12752027 0.00000000)
		(3.34000000 0.12752027 0.00000000)
		(3.36000000 0.12752027 0.00000000)
		(3.38000000 0.12752027 0.00000000)
		(3.40000000 0.12752027 0.00000000)
		(3.42000000 0.12752027 0.00000000)
		(3.44000000 0.12752027 0.00000000)
		(3.46000000 0.12752027 0.00000000)
		(3.48000000 0.12752027 0.00000000)
		(3.50000000 0.12752027 0.00000000)
		(3.52000000 0.12752027 0.00000000)
		(3.54000000 0.12752027 0.00000000)
		(3.56000000 0.12752027 0.00000000)
		(3.58000000 0.12752027 0.00000000)
		(3.60000000 0.12752027 0.00000000)
		(3.62000000 0.12752027 0.00000000)
		(3.64000000 0.12752027 0.00000000)
		(3.66000000 0.12752027 0.00000000)
		(3.68000000 0.12752027 0.00000000)
		(3.70000000 0.12752027 0.00000000)
		(3.72000000 0.12752027 0.00000000)
		(3.74000000 0.12752027 0.00000000)
		(3.76000000 0.12752027 0.00000000)
		(3.78000000 0.12752027 0.00000000)
		(3.80000000 0.12752027 0.00000000)
		(3.82000000 0.12752027 0.00000000)
		(3.84000000 0.12752027 0.00000000)
		(3.86000000 0.12752027 0.00000000)
		(3.88000000 0.12752027 0.00000000)
		(3.90000000 0.12752027 0.00000000)
		(3.92000000 0.12752027 0.00000000)
		(3.94000000 0.12752027 0.00000000)
		(3.96000000 0.12752027 0.00000000)
		(3.98000000 0.12752027 0.00000000)
		(4.00000000 0.12752027 0.00000000)
	)
	polyLine 4 5
	(
		(-1.00000000 0.17404225 0.10000000)
		(-0.98000000 0.17404225 0.10000000)
		(-0.96000000 0.17404225 0.10000000)
		(-0.94000000 0.17404225 0.10000000)
		(-0.92000000 0.17404225 0.10000000)
		(-0.90000000 0.17404225 0.10000000)
		(-0.88000000 0.17404225 0.10000000)
		(-0.86000000 0.17404225 0.10000000)
		(-0.84000000 0.17404225 0.10000000)
		(-0.82000000 0.17404225 0.10000000)
		(-0.80000000 0.17404225 0.10000000)
		(-0.78000000 0.17404225 0.10000000)
		(-0.76000000 0.17404225 0.10000000)
		(-0.74000000 0.17404225 0.10000000)
		(-0.72000000 0.17404225 0.10000000)
		(-0.70000000 0.17404225 0.10000000)
		(-0.68000000 0.17404225 0.10000000)
		(-0.66000000 0.17404225 0.10000000)
		(-0.64000000 0.17404225 0.10000000)
		(-0.62000000 0.17404225 0.10000000)
		(-0.60000000 0.17404225 0.10000000)
		(-0.58000000 0.17404225 0.10000000)
		(-0.56000000 0.17404225 0.10000000)
		(-0.54000000 0.17404225 0.10000000)
		(-0.52000000 0.17404225 0.10000000)
		(-0.50000000 0.17404225 0.10000000)
		(-0.48000000 0.17404225 0.10000000)
		(-0.46000000 0.17404225 0.10000000)
		(-0.44000000 0.17404225 0.10000000)
		(-0.42000000 0.17404225 0.10000000)
		(-0.40000000 0.17404225 0.10000000)
		(-0.38000000 0.17404225 0.10000000)
		(-0.36000000 0.17404225 0.10000000)
		(-0.34000000 0.17404225 0.10000000)
		(-0.32000000 0.17404225 0.10000000)
		(-0.30000000 0.17404225 0.10000000)
		(-0.28000000 0.17404225 0.10000000)
		(-0.26000000 0.17404225 0.10000000)
		(-0.24000000 0.17404225 0.10000000)
		(-0.22000000 0.17404225 0.10000000)
		(-0.20000000 0.17404225 0.10000000)
		(-0.18000000 0.17404225 0.10000000)
		(-0.16000000 0.17404225 0.10000000)
		(-0.14000000 0.17404225 0.10000000)
		(-0.12000000 0.17404225 0.10000000)
		(-0.10000000 0.17404225 0.10000000)
		(-0.08162011 0.17460599 0.10000000)
		(-0.06324022 0.17629723 0.10000000)
		(-0.04486034 0.17911595 0.10000000)
		(-0.02648045 0.18306217 0.10000000)
		(-0.00810056 0.18813587 0.10000000)
		(0.01027933 0.19433707 0.10000000)
		(0.02865922 0.20166575 0.10000000)
		(0.04703911 0.21012193 0.10000000)
		(0.06541899 0.21970559 0.10000000)
		(0.08379888 0.23041674 0.10000000)
		(0.10055866 0.23746728 0.10000000)
		(0.11731844 0.24298126 0.10000000)
		(0.13407821 0.24692301 0.10000000)
		(0.15083799 0.24926702 0.10000000)
		(0.16759777 0.24999813 0.10000000)
		(0.18435754 0.24911160 0.10000000)
		(0.20111732 0.24661318 0.10000000)
		(0.21787709 0.24251903 0.10000000)
		(0.23463687 0.23685563 0.10000000)
		(0.25139665 0.22965964 0.10000000)
		(0.26815642 0.22097761 0.10000000)
		(0.28491620 0.21086574 0.10000000)
		(0.30167598 0.19938943 0.10000000)
		(0.31843575 0.18662296 0.10000000)
		(0.33519553 0.17264893 0.10000000)
		(0.35195531 0.15755776 0.10000000)
		(0.36871508 0.14144710 0.10000000)
		(0.38547486 0.12442119 0.10000000)
		(0.40223464 0.10659021 0.10000000)
		(0.41899441 0.08806952 0.10000000)
		(0.43575419 0.06897898 0.10000000)
		(0.45251397 0.04944209 0.10000000)
		(0.46927374 0.02958529 0.10000000)
		(0.48603352 0.00953706 0.10000000)
		(0.50279330 -0.01057289 0.10000000)
		(0.51955307 -0.03061442 0.10000000)
		(0.53631285 -0.05045786 0.10000000)
		(0.55307263 -0.06997481 0.10000000)
		(0.56983240 -0.08903898 0.10000000)
		(0.58659218 -0.10752702 0.10000000)
		(0.60335196 -0.12531929 0.10000000)
		(0.62011173 -0.14230067 0.10000000)
		(0.63687151 -0.15836129 0.10000000)
		(0.65363128 -0.17339721 0.10000000)
		(0.67039106 -0.18731115 0.10000000)
		(0.68715084 -0.20001308 0.10000000)
		(0.70391061 -0.21142081 0.10000000)
		(0.72067039 -0.22146052 0.10000000)
		(0.73743017 -0.23006725 0.10000000)
		(0.75418994 -0.23718531 0.10000000)
		(0.77094972 -0.24276865 0.10000000)
		(0.78770950 -0.24678112 0.10000000)
		(0.80446927 -0.24919678 0.10000000)
		(0.82122905 -0.24999999 0.10000000)
		(0.83798883 -0.24918555 0.10000000)
		(0.85474860 -0.24675874 0.10000000)
		(0.87150838 -0.24273525 0.10000000)
		(0.88826816 -0.23714112 0.10000000)
		(0.90502793 -0.23001255 0.10000000)
		(0.92178771 -0.22139567 0.10000000)
		(0.93854749 -0.21134622 0.10000000)
		(0.95530726 -0.19992924 0.10000000)
		(0.97206704 -0.18721860 0.10000000)
		(0.98882682 -0.17329655 0.10000000)
		(1.00558659 -0.15825317 0.10000000)
		(1.02234637 -0.14218579 0.10000000)
		(1.03910615 -0.12519839 0.10000000)
		(1.05586592 -0.10740088 0.10000000)
		(1.07262570 -0.08890843 0.10000000)
		(1.08938547 -0.06984069 0.10000000)
		(1.10614525 -0.05032103 0.10000000)
		(1.12290503 -0.03047577 0.10000000)
		(1.13966480 -0.01043332 0.10000000)
		(1.15642458 0.00967665 0.10000000)
		(1.17318436 0.02972400 0.10000000)
		(1.18994413 0.04957902 0.10000000)
		(1.20670391 0.06911324 0.10000000)
		(1.22346369 0.08820025 0.10000000)
		(1.24022346 0.10671656 0.10000000)
		(1.25698324 0.12454234 0.10000000)
		(1.27374302 0.14156227 0.10000000)
		(1.29050279 0.15766620 0.10000000)
		(1.30726257 0.17274994 0.10000000)
		(1.32402235 0.18671589 0.10000000)
		(1.34078212 0.19947367 0.10000000)
		(1.35754190 0.21094075 0.10000000)
		(1.37430168 0.22104291 0.10000000)
		(1.39106145 0.22971480 0.10000000)
		(1.40782123 0.23690029 0.10000000)
		(1.42458101 0.24255291 0.10000000)
		(1.44134078 0.24663606 0.10000000)
		(1.45810056 0.24912333 0.10000000)
		(1.47486034 0.24999863 0.10000000)
		(1.49162011 0.24925629 0.10000000)
		(1.50837989 0.24690112 0.10000000)
		(1.52513966 0.24294835 0.10000000)
		(1.54189944 0.23742356 0.10000000)
		(1.55865922 0.23036251 0.10000000)
		(1.57541899 0.22181087 0.10000000)
		(1.59217877 0.21182399 0.10000000)
		(1.60893855 0.20046648 0.10000000)
		(1.62569832 0.18781183 0.10000000)
		(1.64245810 0.17394194 0.10000000)
		(1.65921788 0.15894653 0.10000000)
		(1.67597765 0.14292265 0.10000000)
		(1.69273743 0.12597398 0.10000000)
		(1.70949721 0.10821018 0.10000000)
		(1.72625698 0.08974619 0.10000000)
		(1.74301676 0.07070150 0.10000000)
		(1.75977654 0.05119933 0.10000000)
		(1.77653631 0.03136586 0.10000000)
		(1.79329609 0.01132944 0.10000000)
		(1.81005587 -0.00878029 0.10000000)
		(1.82681564 -0.02883320 0.10000000)
		(1.84357542 -0.04869955 0.10000000)
		(1.86033520 -0.06825078 0.10000000)
		(1.87709497 -0.08736039 0.10000000)
		(1.89385475 -0.10590472 0.10000000)
		(1.91061453 -0.12376379 0.10000000)
		(1.92737430 -0.14082204 0.10000000)
		(1.94413408 -0.15696908 0.10000000)
		(1.96089385 -0.17210045 0.10000000)
		(1.97765363 -0.18611822 0.10000000)
		(1.99441341 -0.19893170 0.10000000)
		(2.01117318 -0.21045797 0.10000000)
		(2.02793296 -0.22062246 0.10000000)
		(2.04469274 -0.22935938 0.10000000)
		(2.06145251 -0.23661222 0.10000000)
		(2.07821229 -0.24233404 0.10000000)
		(2.09497207 -0.24648782 0.10000000)
		(2.11173184 -0.24904668 0.10000000)
		(2.12849162 -0.24999405 0.10000000)
		(2.14525140 -0.24932382 0.10000000)
		(2.16201117 -0.24704032 0.10000000)
		(2.17877095 -0.24315832 0.10000000)
		(2.19553073 -0.23770295 0.10000000)
		(2.21229050 -0.23070950 0.10000000)
		(2.22905028 -0.22222322 0.10000000)
		(2.24581006 -0.21229903 0.10000000)
		(2.26256983 -0.20100113 0.10000000)
		(2.27932961 -0.18840265 0.10000000)
		(2.29608939 -0.17458508 0.10000000)
		(2.31284916 -0.15963785 0.10000000)
		(2.32960894 -0.14365767 0.10000000)
		(2.34636872 -0.12674794 0.10000000)
		(2.36312849 -0.10901808 0.10000000)
		(2.37988827 -0.09058280 0.10000000)
		(2.39664804 -0.07156140 0.10000000)
		(2.41340782 -0.05207696 0.10000000)
		(2.43016760 -0.03225555 0.10000000)
		(2.44692737 -0.01222542 0.10000000)
		(2.46368715 0.00788381 0.10000000)
		(2.48044693 0.02794202 0.10000000)
		(2.49720670 0.04781944 0.10000000)
		(2.51396648 0.06738744 0.10000000)
		(2.53072626 0.08651940 0.10000000)
		(2.54748603 0.10509152 0.10000000)
		(2.56424581 0.12298365 0.10000000)
		(2.58100559 0.14008000 0.10000000)
		(2.59776536 0.15626995 0.10000000)
		(2.61452514 0.17144874 0.10000000)
		(2.63128492 0.18551815 0.10000000)
		(2.64804469 0.19838716 0.10000000)
		(2.66480447 0.20997248 0.10000000)
		(2.68156425 0.22019916 0.10000000)
		(2.69832402 0.22900102 0.10000000)
		(2.71508380 0.23632111 0.10000000)
		(2.73184358 0.24211206 0.10000000)
		(2.74860335 0.24633641 0.10000000)
		(2.76536313 0.24896682 0.10000000)
		(2.78212291 0.24998626 0.10000000)
		(2.79888268 0.24938815 0.10000000)
		(2.81564246 0.24717634 0.10000000)
		(2.83240223 0.24336517 0.10000000)
		(2.84916201 0.23797927 0.10000000)
		(2.86592179 0.23105352 0.10000000)
		(2.88268156 0.22263271 0.10000000)
		(2.89944134 0.21277133 0.10000000)
		(2.91620112 0.20153320 0.10000000)
		(2.93296089 0.18899103 0.10000000)
		(2.95166480 0.17731159 0.10000000)
		(2.97036872 0.16686156 0.10000000)
		(2.98907263 0.15764095 0.10000000)
		(3.00777654 0.14964975 0.10000000)
		(3.02648045 0.14288796 0.10000000)
		(3.04518436 0.13735559 0.10000000)
		(3.06388827 0.13305264 0.10000000)
		(3.08259218 0.12997910 0.10000000)
		(3.10129609 0.12813498 0.10000000)
		(3.12000000 0.12752027 0.10000000)
		(3.14000000 0.12752027 0.10000000)
		(3.16000000 0.12752027 0.10000000)
		(3.18000000 0.12752027 0.10000000)
		(3.20000000 0.12752027 0.10000000)
		(3.22000000 0.12752027 0.10000000)
		(3.24000000 0.12752027 0.10000000)
		(3.26000000 0.12752027 0.10000000)
		(3.28000000 0.12752027 0.10000000)
		(3.30000000 0.12752027 0.10000000)
		(3.32000000 0.12752027 0.10000000)
		(3.34000000 0.12752027 0.10000000)
		(3.36000000 0.12752027 0.10000000)
		(3.38000000 0.12752027 0.10000000)
		(3.40000000 0.12752027 0.10000000)
		(3.42000000 0.12752027 0.10000000)
		(3.44000000 0.12752027 0.10000000)
		(3.46000000 0.12752027 0.10000000)
		(3.48000000 0.12752027 0.10000000)
		(3.50000000 0.12752027 0.10000000)
		(3.52000000 0.12752027 0.10000000)
		(3.54000000 0.12752027 0.10000000)
		(3.56000000 0.12752027 0.10000000)
		(3.58000000 0.12752027 0.10000000)
		(3.60000000 0.12752027 0.10000000)
		(3.62000000 0.12752027 0.10000000)
		(3.64000000 0.12752027 0.10000000)
		(3.66000000 0.12752027 0.10000000)
		(3.68000000 0.12752027 0.10000000)
		(3.70000000 0.12752027 0.10000000)
		(3.72000000 0.12752027 0.10000000)
		(3.74000000 0.12752027 0.10000000)
		(3.76000000 0.12752027 0.10000000)
		(3.78000000 0.12752027 0.10000000)
		(3.80000000 0.12752027 0.10000000)
		(3.82000000 0.12752027 0.10000000)
		(3.84000000 0.12752027 0.10000000)
		(3.86000000 0.12752027 0.10000000)
		(3.88000000 0.12752027 0.10000000)
		(3.90000000 0.12752027 0.10000000)
		(3.92000000 0.12752027 0.10000000)
		(3.94000000 0.12752027 0.10000000)
		(3.96000000 0.12752027 0.10000000)
		(3.98000000 0.12752027 0.10000000)
		(4.00000000 0.12752027 0.10000000)
	)
	polyLine 3 2
	(
		(-1.00000000 0.67404225 0.00000000)
		(-0.98000000 0.67507346 0.00000000)
		(-0.96000000 0.67610467 0.00000000)
		(-0.94000000 0.67713588 0.00000000)
		(-0.92000000 0.67816709 0.00000000)
		(-0.90000000 0.67919830 0.00000000)
		(-0.88000000 0.68022951 0.00000000)
		(-0.86000000 0.68126072 0.00000000)
		(-0.84000000 0.68229193 0.00000000)
		(-0.82000000 0.68332313 0.00000000)
		(-0.80000000 0.68435434 0.00000000)
		(-0.78000000 0.68538555 0.00000000)
		(-0.76000000 0.68641676 0.00000000)
		(-0.74000000 0.68744797 0.00000000)
		(-0.72000000 0.68847918 0.00000000)
		(-0.70000000 0.68951039 0.00000000)
		(-0.68000000 0.69054160 0.00000000)
		(-0.66000000 0.69157281 0.00000000)
		(-0.64000000 0.69260402 0.00000000)
		(-0.62000000 0.69363523 0.00000000)
		(-0.60000000 0.69466644 0.00000000)
		(-0.58000000 0.69569765 0.00000000)
		(-0.56000000 0.69672886 0.00000000)
		(-0.54000000 0.69776007 0.00000000)
		(-0.52000000 0.69879128 0.00000000)
		(-0.50000000 0.69982249 0.00000000)
		(-0.48000000 0.70085370 0.00000000)
		(-0.46000000 0.70188491 0.00000000)
		(-0.44000000 0.70291612 0.00000000)
		(-0.42000000 0.70394732 0.00000000)
		(-0.40000000 0.70497853 0.00000000)
		(-0.38000000 0.70600974 0.00000000)
		(-0.36000000 0.70704095 0.00000000)
		(-0.34000000 0.70807216 0.00000000)
		(-0.32000000 0.70910337 0.00000000)
		(-0.30000000 0.71013458 0.00000000)
		(-0.28000000 0.71116579 0.00000000)
		(-0.26000000 0.71219700 0.00000000)
		(-0.24000000 0.71322821 0.00000000)
		(-0.22000000 0.71425942 0.00000000)
		(-0.20000000 0.71529063 0.00000000)
		(-0.18000000 0.71632184 0.00000000)
		(-0.16000000 0.71735305 0.00000000)
		(-0.14000000 0.71838426 0.00000000)
		(-0.12000000 0.71941547 0.00000000)
		(-0.10000000 0.72044668 0.00000000)
		(-0.08162011 0.72068032 0.00000000)
		(-0.06324022 0.72257019 0.00000000)
		(-0.04486034 0.72611628 0.00000000)
		(-0.02648045 0.73131858 0.00000000)
		(-0.00810056 0.73817711 0.00000000)
		(0.01027933 0.74669186 0.00000000)
		(0.02865922 0.75686284 0.00000000)
		(0.04703911 0.76869003 0.00000000)
		(0.06541899 0.78217345 0.00000000)
		(0.08379888 0.79731308 0.00000000)
		(0.10055866 0.80641058 0.00000000)
		(0.11731844 0.81352542 0.00000000)
		(0.13407821 0.81861157 0.00000000)
		(0.15083799 0.82163611 0.00000000)
		(0.16759777 0.82257948 0.00000000)
		(0.18435754 0.82143558 0.00000000)
		(0.20111732 0.81821179 0.00000000)
		(0.21787709 0.81292899 0.00000000)
		(0.23463687 0.80562135 0.00000000)
		(0.25139665 0.79633617 0.00000000)
		(0.26815642 0.78513351 0.00000000)
		(0.28491620 0.77208588 0.00000000)
		(0.30167598 0.75727769 0.00000000)
		(0.31843575 0.74080476 0.00000000)
		(0.33519553 0.72277368 0.00000000)
		(0.35195531 0.70330113 0.00000000)
		(0.36871508 0.68251310 0.00000000)
		(0.38547486 0.66054410 0.00000000)
		(0.40223464 0.63753629 0.00000000)
		(0.41899441 0.61363854 0.00000000)
		(0.43575419 0.58900547 0.00000000)
		(0.45251397 0.56379650 0.00000000)
		(0.46927374 0.53817472 0.00000000)
		(0.48603352 0.51230593 0.00000000)
		(0.50279330 0.48635751 0.00000000)
		(0.51955307 0.46049737 0.00000000)
		(0.53631285 0.43489283 0.00000000)
		(0.55307263 0.40970957 0.00000000)
		(0.56983240 0.38511055 0.00000000)
		(0.58659218 0.36125492 0.00000000)
		(0.60335196 0.33829706 0.00000000)
		(0.62011173 0.31638552 0.00000000)
		(0.63687151 0.29566206 0.00000000)
		(0.65363128 0.27626080 0.00000000)
		(0.67039106 0.25830725 0.00000000)
		(0.68715084 0.24191760 0.00000000)
		(0.70391061 0.22719790 0.00000000)
		(0.72067039 0.21424338 0.00000000)
		(0.73743017 0.20313788 0.00000000)
		(0.75418994 0.19395325 0.00000000)
		(0.77094972 0.18674892 0.00000000)
		(0.78770950 0.18157151 0.00000000)
		(0.80446927 0.17845452 0.00000000)
		(0.82122905 0.17741812 0.00000000)
		(0.83798883 0.17846901 0.00000000)
		(0.85474860 0.18160039 0.00000000)
		(0.87150838 0.18679201 0.00000000)
		(0.88826816 0.19401027 0.00000000)
		(0.90502793 0.20320846 0.00000000)
		(0.92178771 0.21432706 0.00000000)
		(0.93854749 0.22729414 0.00000000)
		(0.95530726 0.24202578 0.00000000)
		(0.97206704 0.25842667 0.00000000)
		(0.98882682 0.27639068 0.00000000)
		(1.00558659 0.29580157 0.00000000)
		(1.02234637 0.31653375 0.00000000)
		(1.03910615 0.33845306 0.00000000)
		(1.05586592 0.36141768 0.00000000)
		(1.07262570 0.38527900 0.00000000)
		(1.08938547 0.40988263 0.00000000)
		(1.10614525 0.43506938 0.00000000)
		(1.12290503 0.46067627 0.00000000)
		(1.13966480 0.48653760 0.00000000)
		(1.15642458 0.51248605 0.00000000)
		(1.17318436 0.53835370 0.00000000)
		(1.18994413 0.56397318 0.00000000)
		(1.20670391 0.58917872 0.00000000)
		(1.22346369 0.61380722 0.00000000)
		(1.24022346 0.63769932 0.00000000)
		(1.25698324 0.66070042 0.00000000)
		(1.27374302 0.68266170 0.00000000)
		(1.29050279 0.70344105 0.00000000)
		(1.30726257 0.72290401 0.00000000)
		(1.32402235 0.74092466 0.00000000)
		(1.34078212 0.75738638 0.00000000)
		(1.35754190 0.77218266 0.00000000)
		(1.37430168 0.78521776 0.00000000)
		(1.39106145 0.79640734 0.00000000)
		(1.40782123 0.80567898 0.00000000)
		(1.42458101 0.81297271 0.00000000)
		(1.44134078 0.81824131 0.00000000)
		(1.45810056 0.82145071 0.00000000)
		(1.47486034 0.82258013 0.00000000)
		(1.49162011 0.82162227 0.00000000)
		(1.50837989 0.81858333 0.00000000)
		(1.52513966 0.81348296 0.00000000)
		(1.54189944 0.80635417 0.00000000)
		(1.55865922 0.79724310 0.00000000)
		(1.57541899 0.78620869 0.00000000)
		(1.59217877 0.77332233 0.00000000)
		(1.60893855 0.75866743 0.00000000)
		(1.62569832 0.74233879 0.00000000)
		(1.64245810 0.72444208 0.00000000)
		(1.65921788 0.70509310 0.00000000)
		(1.67597765 0.68441704 0.00000000)
		(1.69273743 0.66254770 0.00000000)
		(1.70949721 0.63962658 0.00000000)
		(1.72625698 0.61580199 0.00000000)
		(1.74301676 0.59122810 0.00000000)
		(1.75977654 0.56606390 0.00000000)
		(1.77653631 0.54047224 0.00000000)
		(1.79329609 0.51461869 0.00000000)
		(1.81005587 0.48867056 0.00000000)
		(1.82681564 0.46279573 0.00000000)
		(1.84357542 0.43716163 0.00000000)
		(1.86033520 0.41193414 0.00000000)
		(1.87709497 0.38727648 0.00000000)
		(1.89385475 0.36334822 0.00000000)
		(1.91061453 0.34030416 0.00000000)
		(1.92737430 0.31829344 0.00000000)
		(1.94413408 0.29745846 0.00000000)
		(1.96089385 0.27793405 0.00000000)
		(1.97765363 0.25984653 0.00000000)
		(1.99441341 0.24331295 0.00000000)
		(2.01117318 0.22844028 0.00000000)
		(2.02793296 0.21532476 0.00000000)
		(2.04469274 0.20405126 0.00000000)
		(2.06145251 0.19469272 0.00000000)
		(2.07821229 0.18730970 0.00000000)
		(2.09497207 0.18194996 0.00000000)
		(2.11173184 0.17864820 0.00000000)
		(2.12849162 0.17742577 0.00000000)
		(2.14525140 0.17829059 0.00000000)
		(2.16201117 0.18123706 0.00000000)
		(2.17877095 0.18624611 0.00000000)
		(2.19553073 0.19328533 0.00000000)
		(2.21229050 0.20230917 0.00000000)
		(2.22905028 0.21325925 0.00000000)
		(2.24581006 0.22606471 0.00000000)
		(2.26256983 0.24064269 0.00000000)
		(2.27932961 0.25689887 0.00000000)
		(2.29608939 0.27472805 0.00000000)
		(2.31284916 0.29401487 0.00000000)
		(2.32960894 0.31463454 0.00000000)
		(2.34636872 0.33645364 0.00000000)
		(2.36312849 0.35933097 0.00000000)
		(2.37988827 0.38311851 0.00000000)
		(2.39664804 0.40766235 0.00000000)
		(2.41340782 0.43280366 0.00000000)
		(2.43016760 0.45837978 0.00000000)
		(2.44692737 0.48422520 0.00000000)
		(2.46368715 0.51017269 0.00000000)
		(2.48044693 0.53605437 0.00000000)
		(2.49720670 0.56170274 0.00000000)
		(2.51396648 0.58695187 0.00000000)
		(2.53072626 0.61163836 0.00000000)
		(2.54748603 0.63560249 0.00000000)
		(2.56424581 0.65868920 0.00000000)
		(2.58100559 0.68074908 0.00000000)