/*--------------------------------*- C++ -*----------------------------------*\\
/*--------------------------------*- C++ -*----------------------------------*\\
| =========                 |                                                 |
| \\\\      /  F ield         | OpenFOAM: The Open Source CFD Toolbox           |
|  \\\\    /   O peration     | Version:  v2012                                 |
|   \\\\  /    A nd           | Website:  www.openfoam.com                      |
|    \\\\/     M anipulation  |                                                 |
\\*---------------------------------------------------------------------------*/
FoamFile
{
    version     2.0;
    format      ascii;
    class       dictionary;
    object      blockMeshDict;
}
// * * * * * * * * * * * * * * * * * * * * * * * * * * * * * * * * * * * * * //

scale   0.01;

xmin -1;
xmax 5;
ymin 0;
ymax 0.5;
zmin 0;
zmax 0.1;

vertices
(
    (-1.00000000 0.14900429 0.00000000)
    (4.00000000 0.02843189 0.00000000)
    (4.00000000 0.52843189 0.00000000)
    (-1.00000000 0.64900429 0.00000000)
    (-1.00000000 0.14900429 0.10000000)
    (4.00000000 0.02843189 0.10000000)
    (4.00000000 0.52843189 0.10000000)
    (-1.00000000 0.64900429 0.10000000)
);

blocks
(
    hex (0 1 2 3 4 5 6 7) (200 20 1) simpleGrading (1 1 1)
);

edges
(
	polyLine 0 1
	(
		(-1.00000000 0.14900429 0.00000000)
		(-0.98000000 0.14900429 0.00000000)
		(-0.96000000 0.14900429 0.00000000)
		(-0.94000000 0.14900429 0.00000000)
		(-0.92000000 0.14900429 0.00000000)
		(-0.90000000 0.14900429 0.00000000)
		(-0.88000000 0.14900429 0.00000000)
		(-0.86000000 0.14900429 0.00000000)
		(-0.84000000 0.14900429 0.00000000)
		(-0.82000000 0.14900429 0.00000000)
		(-0.80000000 0.14900429 0.00000000)
		(-0.78000000 0.14900429 0.00000000)
		(-0.76000000 0.14900429 0.00000000)
		(-0.74000000 0.14900429 0.00000000)
		(-0.72000000 0.14900429 0.00000000)
		(-0.70000000 0.14900429 0.00000000)
		(-0.68000000 0.14900429 0.00000000)
		(-0.66000000 0.14900429 0.00000000)
		(-0.64000000 0.14900429 0.00000000)
		(-0.62000000 0.14900429 0.00000000)
		(-0.60000000 0.14900429 0.00000000)
		(-0.58000000 0.14900429 0.00000000)
		(-0.56000000 0.14900429 0.00000000)
		(-0.54000000 0.14900429 0.00000000)
		(-0.52000000 0.14900429 0.00000000)
		(-0.50000000 0.14900429 0.00000000)
		(-0.48000000 0.14900429 0.00000000)
		(-0.46000000 0.14900429 0.00000000)
		(-0.44000000 0.14900429 0.00000000)
		(-0.42000000 0.14900429 0.00000000)
		(-0.40000000 0.14900429 0.00000000)
		(-0.38000000 0.14900429 0.00000000)
		(-0.36000000 0.14900429 0.00000000)
		(-0.34000000 0.14900429 0.00000000)
		(-0.32000000 0.14900429 0.00000000)
		(-0.30000000 0.14900429 0.00000000)
		(-0.28000000 0.14900429 0.00000000)
		(-0.26000000 0.14900429 0.00000000)
		(-0.24000000 0.14900429 0.00000000)
		(-0.22000000 0.14900429 0.00000000)
		(-0.20000000 0.14900429 0.00000000)
		(-0.18000000 0.14900429 0.00000000)
		(-0.16000000 0.14900429 0.00000000)
		(-0.14000000 0.14900429 0.00000000)
		(-0.12000000 0.14900429 0.00000000)
		(-0.10000000 0.14900429 0.00000000)
		(-0.08162011 0.14795873 0.00000000)
		(-0.06324022 0.14482204 0.00000000)
		(-0.04486034 0.13959422 0.00000000)
		(-0.02648045 0.13227528 0.00000000)
		(-0.00810056 0.12286521 0.00000000)
		(0.01027933 0.11136402 0.00000000)
		(0.02865922 0.09777170 0.00000000)
		(0.04703911 0.08208825 0.00000000)
		(0.06541899 0.06431368 0.00000000)
		(0.08379888 0.04444798 0.00000000)
		(0.10055866 0.02166883 0.00000000)
		(0.11731844 -0.00129342 0.00000000)
		(0.13407821 -0.02424474 0.00000000)
		(0.15083799 -0.04699119 0.00000000)
		(0.16759777 -0.06934055 0.00000000)
		(0.18435754 -0.09110396 0.00000000)
		(0.20111732 -0.11209751 0.00000000)
		(0.21787709 -0.13214380 0.00000000)
		(0.23463687 -0.15107344 0.00000000)
		(0.25139665 -0.16872647 0.00000000)
		(0.26815642 -0.18495370 0.00000000)
		(0.28491620 -0.19961802 0.00000000)
		(0.30167598 -0.21259551 0.00000000)
		(0.31843575 -0.22377649 0.00000000)
		(0.33519553 -0.23306650 0.00000000)
		(0.35195531 -0.24038703 0.00000000)
		(0.36871508 -0.24567622 0.00000000)
		(0.38547486 -0.24888936 0.00000000)
		(0.40223464 -0.24999932 0.00000000)
		(0.41899441 -0.24899670 0.00000000)
		(0.43575419 -0.24588999 0.00000000)
		(0.45251397 -0.24070543 0.00000000)
		(0.46927374 -0.23348684 0.00000000)
		(0.48603352 -0.22429521 0.00000000)
		(0.50279330 -0.21320822 0.00000000)
		(0.51955307 -0.20031956 0.00000000)
		(0.53631285 -0.18573814 0.00000000)
		(0.55307263 -0.16958717 0.00000000)
		(0.56983240 -0.15200314 0.00000000)
		(0.58659218 -0.13313464 0.00000000)
		(0.60335196 -0.11314110 0.00000000)
		(0.62011173 -0.09219150 0.00000000)
		(0.63687151 -0.07046284 0.00000000)
		(0.65363128 -0.04813876 0.00000000)
		(0.67039106 -0.02540788 0.00000000)
		(0.68715084 -0.00246230 0.00000000)
		(0.70391061 0.02050408 0.00000000)
		(0.72067039 0.04329720 0.00000000)
		(0.73743017 0.06572444 0.00000000)
		(0.75418994 0.08759630 0.00000000)
		(0.77094972 0.10872794 0.00000000)
		(0.78770950 0.12894079 0.00000000)
		(0.80446927 0.14806406 0.00000000)
		(0.82122905 0.16593614 0.00000000)
		(0.83798883 0.18240600 0.00000000)
		(0.85474860 0.19733449 0.00000000)
		(0.87150838 0.21059543 0.00000000)
		(0.88826816 0.22207678 0.00000000)
		(0.90502793 0.23168152 0.00000000)
		(0.92178771 0.23932847 0.00000000)
		(0.93854749 0.24495303 0.00000000)
		(0.95530726 0.24850766 0.00000000)
		(0.97206704 0.24996233 0.00000000)
		(0.98882682 0.24930473 0.00000000)
		(1.00558659 0.24654044 0.00000000)
		(1.02234637 0.24169281 0.00000000)
		(1.03910615 0.23480279 0.00000000)
		(1.05586592 0.22592863 0.00000000)
		(1.07262570 0.21514529 0.00000000)
		(1.08938547 0.20254392 0.00000000)
		(1.10614525 0.18823099 0.00000000)
		(1.12290503 0.17232744 0.00000000)
		(1.13966480 0.15496768 0.00000000)
		(1.15642458 0.13629840 0.00000000)
		(1.17318436 0.11647735 0.00000000)
		(1.18994413 0.09567203 0.00000000)
		(1.20670391 0.07405826 0.00000000)
		(1.22346369 0.05181867 0.00000000)
		(1.24022346 0.02914120 0.00000000)
		(1.25698324 0.00621747 0.00000000)
		(1.27374302 -0.01675879 0.00000000)
		(1.29050279 -0.03959344 0.00000000)
		(1.30726257 -0.06209351 0.00000000)
		(1.32402235 -0.08406887 0.00000000)
		(1.34078212 -0.10533382 0.00000000)
		(1.35754190 -0.12570868 0.00000000)
		(1.37430168 -0.14502125 0.00000000)
		(1.39106145 -0.16310835 0.00000000)
		(1.40782123 -0.17981714 0.00000000)
		(1.42458101 -0.19500642 0.00000000)
		(1.44134078 -0.20854783 0.00000000)
		(1.45810056 -0.22032695 0.00000000)
		(1.47486034 -0.23024424 0.00000000)
		(1.49162011 -0.23821590 0.00000000)
		(1.50837989 -0.24417456 0.00000000)
		(1.52513966 -0.24806987 0.00000000)
		(1.54189944 -0.24986892 0.00000000)
		(1.55865922 -0.24955650 0.00000000)
		(1.57541899 -0.24713525 0.00000000)
		(1.59217877 -0.24262563 0.00000000)
		(1.60893855 -0.23606575 0.00000000)
		(1.62569832 -0.22751105 0.00000000)
		(1.64245810 -0.21703381 0.00000000)
		(1.65921788 -0.20472256 0.00000000)
		(1.67597765 -0.19068135 0.00000000)
		(1.69273743 -0.17502883 0.00000000)
		(1.70949721 -0.15789725 0.00000000)
		(1.72625698 -0.13943140 0.00000000)
		(1.74301676 -0.11978731 0.00000000)
		(1.75977654 -0.09913098 0.00000000)
		(1.77653631 -0.07763696 0.00000000)
		(1.79329609 -0.05548689 0.00000000)
		(1.81005587 -0.03286794 0.00000000)
		(1.82681564 -0.00997124 0.00000000)
		(1.84357542 0.01300972 0.00000000)
		(1.86033520 0.03588074 0.00000000)
		(1.87709497 0.05844856 0.00000000)
		(1.89385475 0.08052247 0.00000000)
		(1.91061453 0.10191594 0.00000000)
		(1.92737430 0.12244819 0.00000000)
		(1.94413408 0.14194572 0.00000000)
		(1.96089385 0.16024376 0.00000000)
		(1.97765363 0.17718769 0.00000000)
		(1.99441341 0.19263434 0.00000000)
		(2.01117318 0.20645316 0.00000000)
		(2.02793296 0.21852739 0.00000000)
		(2.04469274 0.22875500 0.00000000)
		(2.06145251 0.23704957 0.00000000)
		(2.07821229 0.24334099 0.00000000)
		(2.09497207 0.24757610 0.00000000)
		(2.11173184 0.24971912 0.00000000)
		(2.12849162 0.24975194 0.00000000)
		(2.14525140 0.24767428 0.00000000)
		(2.16201117 0.24350370 0.00000000)
		(2.17877095 0.23727544 0.00000000)
		(2.19553073 0.22904213 0.00000000)
		(2.21229050 0.21887334 0.00000000)
		(2.22905028 0.20685501 0.00000000)
		(2.24581006 0.19308868 0.00000000)
		(2.26256983 0.17769070 0.00000000)
		(2.27932961 0.16079119 0.00000000)
		(2.29608939 0.14253293 0.00000000)
		(2.31284916 0.12307023 0.00000000)
		(2.32960894 0.10256755 0.00000000)
		(2.34636872 0.08119814 0.00000000)
		(2.36312849 0.05914259 0.00000000)
		(2.37988827 0.03658726 0.00000000)
		(2.39664804 0.01372275 0.00000000)
		(2.41340782 -0.00925771 0.00000000)
		(2.43016760 -0.03215995 0.00000000)
		(2.44692737 -0.05479042 0.00000000)
		(2.46368715 -0.07695790 0.00000000)
		(2.48044693 -0.09847506 0.00000000)
		(2.49720670 -0.11916007 0.00000000)
		(2.51396648 -0.13883815 0.00000000)
		(2.53072626 -0.15734300 0.00000000)
		(2.54748603 -0.17451826 0.00000000)
		(2.56424581 -0.19021878 0.00000000)
		(2.58100559 -0.20431190 0.00000000)
		(2.59776536 -0.21667852 0.00000000)
		(2.61452514 -0.22721414 0.00000000)
		(2.63128492 -0.23582973 0.00000000)
		(2.64804469 -0.24245249 0.00000000)
		(2.66480447 -0.24702645 0.00000000)
		(2.68156425 -0.24951297 0.00000000)
		(2.69832402 -0.24989102 0.00000000)
		(2.71508380 -0.24815742 0.00000000)
		(2.73184358 -0.24432681 0.00000000)
		(2.74860335 -0.23843157 0.00000000)
		(2.76536313 -0.23052151 0.00000000)
		(2.78212291 -0.22066347 0.00000000)
		(2.79888268 -0.20894076 0.00000000)
		(2.81564246 -0.19545244 0.00000000)
		(2.83240223 -0.18031248 0.00000000)
		(2.84916201 -0.16364883 0.00000000)
		(2.86592179 -0.14560230 0.00000000)
		(2.88268156 -0.12632538 0.00000000)
		(2.89944134 -0.10598097 0.00000000)
		(2.91620112 -0.08474100 0.00000000)
		(2.93296089 -0.06278493 0.00000000)
		(2.95166480 -0.04545374 0.00000000)
		(2.97036872 -0.02994688 0.00000000)
		(2.98907263 -0.01626435 0.00000000)
		(3.00777654 -0.00440616 0.00000000)
		(3.02648045 0.00562769 0.00000000)
		(3.04518436 0.01383720 0.00000000)
		(3.06388827 0.02022238 0.00000000)
		(3.08259218 0.02478322 0.00000000)
		(3.10129609 0.02751972 0.00000000)
		(3.12000000 0.02843189 0.00000000)
		(3.14000000 0.02843189 0.00000000)
		(3.16000000 0.02843189 0.00000000)
		(3.18000000 0.02843189 0.00000000)
		(3.20000000 0.02843189 0.00000000)
		(3.22000000 0.02843189 0.00000000)
		(3.24000000 0.02843189 0.00000000)
		(3.26000000 0.02843189 0.00000000)
		(3.28000000 0.02843189 0.00000000)
		(3.30000000 0.02843189 0.00000000)
		(3.32000000 0.02843189 0.00000000)
		(3.34000000 0.02843189 0.00000000)
		(3.36000000 0.02843189 0.00000000)
		(3.38000000 0.02843189 0.00000000)
		(3.40000000 0.02843189 0.00000000)
		(3.42000000 0.02843189 0.00000000)
		(3.44000000 0.02843189 0.00000000)
		(3.46000000 0.02843189 0.00000000)
		(3.48000000 0.02843189 0.00000000)
		(3.50000000 0.02843189 0.00000000)
		(3.52000000 0.02843189 0.00000000)
		(3.54000000 0.02843189 0.00000000)
		(3.56000000 0.02843189 0.00000000)
		(3.58000000 0.02843189 0.00000000)
		(3.60000000 0.02843189 0.00000000)
		(3.62000000 0.02843189 0.00000000)
		(3.64000000 0.02843189 0.00000000)
		(3.66000000 0.02843189 0.00000000)
		(3.68000000 0.02843189 0.00000000)
		(3.70000000 0.02843189 0.00000000)
		(3.72000000 0.02843189 0.00000000)
		(3.74000000 0.02843189 0.00000000)
		(3.76000000 0.02843189 0.00000000)
		(3.78000000 0.02843189 0.00000000)
		(3.80000000 0.02843189 0.00000000)
		(3.82000000 0.02843189 0.00000000)
		(3.84000000 0.02843189 0.00000000)
		(3.86000000 0.02843189 0.00000000)
		(3.88000000 0.02843189 0.00000000)
		(3.90000000 0.02843189 0.00000000)
		(3.92000000 0.02843189 0.00000000)
		(3.94000000 0.02843189 0.00000000)
		(3.96000000 0.02843189 0.00000000)
		(3.98000000 0.02843189 0.00000000)
		(4.00000000 0.02843189 0.00000000)
	)
	polyLine 4 5
	(
		(-1.00000000 0.14900429 0.10000000)
		(-0.98000000 0.14900429 0.10000000)
		(-0.96000000 0.14900429 0.10000000)
		(-0.94000000 0.14900429 0.10000000)
		(-0.92000000 0.14900429 0.10000000)
		(-0.90000000 0.14900429 0.10000000)
		(-0.88000000 0.14900429 0.10000000)
		(-0.86000000 0.14900429 0.10000000)
		(-0.84000000 0.14900429 0.10000000)
		(-0.82000000 0.14900429 0.10000000)
		(-0.80000000 0.14900429 0.10000000)
		(-0.78000000 0.14900429 0.10000000)
		(-0.76000000 0.14900429 0.10000000)
		(-0.74000000 0.14900429 0.10000000)
		(-0.72000000 0.14900429 0.10000000)
		(-0.70000000 0.14900429 0.10000000)
		(-0.68000000 0.14900429 0.10000000)
		(-0.66000000 0.14900429 0.10000000)
		(-0.64000000 0.14900429 0.10000000)
		(-0.62000000 0.14900429 0.10000000)
		(-0.60000000 0.14900429 0.10000000)
		(-0.58000000 0.14900429 0.10000000)
		(-0.56000000 0.14900429 0.10000000)
		(-0.54000000 0.14900429 0.10000000)
		(-0.52000000 0.14900429 0.10000000)
		(-0.50000000 0.14900429 0.10000000)
		(-0.48000000 0.14900429 0.10000000)
		(-0.46000000 0.14900429 0.10000000)
		(-0.44000000 0.14900429 0.10000000)
		(-0.42000000 0.14900429 0.10000000)
		(-0.40000000 0.14900429 0.10000000)
		(-0.38000000 0.14900429 0.10000000)
		(-0.36000000 0.14900429 0.10000000)
		(-0.34000000 0.14900429 0.10000000)
		(-0.32000000 0.14900429 0.10000000)
		(-0.30000000 0.14900429 0.10000000)
		(-0.28000000 0.14900429 0.10000000)
		(-0.26000000 0.14900429 0.10000000)
		(-0.24000000 0.14900429 0.10000000)
		(-0.22000000 0.14900429 0.10000000)
		(-0.20000000 0.14900429 0.10000000)
		(-0.18000000 0.14900429 0.10000000)
		(-0.16000000 0.14900429 0.10000000)
		(-0.14000000 0.14900429 0.10000000)
		(-0.12000000 0.14900429 0.10000000)
		(-0.10000000 0.14900429 0.10000000)
		(-0.08162011 0.14795873 0.10000000)
		(-0.06324022 0.14482204 0.10000000)
		(-0.04486034 0.13959422 0.10000000)
		(-0.02648045 0.13227528 0.10000000)
		(-0.00810056 0.12286521 0.10000000)
		(0.01027933 0.11136402 0.10000000)
		(0.02865922 0.09777170 0.10000000)
		(0.04703911 0.08208825 0.10000000)
		(0.06541899 0.06431368 0.10000000)
		(0.08379888 0.04444798 0.10000000)
		(0.10055866 0.02166883 0.10000000)
		(0.11731844 -0.00129342 0.10000000)
		(0.13407821 -0.02424474 0.10000000)
		(0.15083799 -0.04699119 0.10000000)
		(0.16759777 -0.06934055 0.10000000)
		(0.18435754 -0.09110396 0.10000000)
		(0.20111732 -0.11209751 0.10000000)
		(0.21787709 -0.13214380 0.10000000)
		(0.23463687 -0.15107344 0.10000000)
		(0.25139665 -0.16872647 0.10000000)
		(0.26815642 -0.18495370 0.10000000)
		(0.28491620 -0.19961802 0.10000000)
		(0.30167598 -0.21259551 0.10000000)
		(0.31843575 -0.22377649 0.10000000)
		(0.33519553 -0.23306650 0.10000000)
		(0.35195531 -0.24038703 0.10000000)
		(0.36871508 -0.24567622 0.10000000)
		(0.38547486 -0.24888936 0.10000000)
		(0.40223464 -0.24999932 0.10000000)
		(0.41899441 -0.24899670 0.10000000)
		(0.43575419 -0.24588999 0.10000000)
		(0.45251397 -0.24070543 0.10000000)
		(0.46927374 -0.23348684 0.10000000)
		(0.48603352 -0.22429521 0.10000000)
		(0.50279330 -0.21320822 0.10000000)
		(0.51955307 -0.20031956 0.10000000)
		(0.53631285 -0.18573814 0.10000000)
		(0.55307263 -0.16958717 0.10000000)
		(0.56983240 -0.15200314 0.10000000)
		(0.58659218 -0.13313464 0.10000000)
		(0.60335196 -0.11314110 0.10000000)
		(0.62011173 -0.09219150 0.10000000)
		(0.63687151 -0.07046284 0.10000000)
		(0.65363128 -0.04813876 0.10000000)
		(0.67039106 -0.02540788 0.10000000)
		(0.68715084 -0.00246230 0.10000000)
		(0.70391061 0.02050408 0.10000000)
		(0.72067039 0.04329720 0.10000000)
		(0.73743017 0.06572444 0.10000000)
		(0.75418994 0.08759630 0.10000000)
		(0.77094972 0.10872794 0.10000000)
		(0.78770950 0.12894079 0.10000000)
		(0.80446927 0.14806406 0.10000000)
		(0.82122905 0.16593614 0.10000000)
		(0.83798883 0.18240600 0.10000000)
		(0.85474860 0.19733449 0.10000000)
		(0.87150838 0.21059543 0.10000000)
		(0.88826816 0.22207678 0.10000000)
		(0.90502793 0.23168152 0.10000000)
		(0.92178771 0.23932847 0.10000000)
		(0.93854749 0.24495303 0.10000000)
		(0.95530726 0.24850766 0.10000000)
		(0.97206704 0.24996233 0.10000000)
		(0.98882682 0.24930473 0.10000000)
		(1.00558659 0.24654044 0.10000000)
		(1.02234637 0.24169281 0.10000000)
		(1.03910615 0.23480279 0.10000000)
		(1.05586592 0.22592863 0.10000000)
		(1.07262570 0.21514529 0.10000000)
		(1.08938547 0.20254392 0.10000000)
		(1.10614525 0.18823099 0.10000000)
		(1.12290503 0.17232744 0.10000000)
		(1.13966480 0.15496768 0.10000000)
		(1.15642458 0.13629840 0.10000000)
		(1.17318436 0.11647735 0.10000000)
		(1.18994413 0.09567203 0.10000000)
		(1.20670391 0.07405826 0.10000000)
		(1.22346369 0.05181867 0.10000000)
		(1.24022346 0.02914120 0.10000000)
		(1.25698324 0.00621747 0.10000000)
		(1.27374302 -0.01675879 0.10000000)
		(1.29050279 -0.03959344 0.10000000)
		(1.30726257 -0.06209351 0.10000000)
		(1.32402235 -0.08406887 0.10000000)
		(1.34078212 -0.10533382 0.10000000)
		(1.35754190 -0.12570868 0.10000000)
		(1.37430168 -0.14502125 0.10000000)
		(1.39106145 -0.16310835 0.10000000)
		(1.40782123 -0.17981714 0.10000000)
		(1.42458101 -0.19500642 0.10000000)
		(1.44134078 -0.20854783 0.10000000)
		(1.45810056 -0.22032695 0.10000000)
		(1.47486034 -0.23024424 0.10000000)
		(1.49162011 -0.23821590 0.10000000)
		(1.50837989 -0.24417456 0.10000000)
		(1.52513966 -0.24806987 0.10000000)
		(1.54189944 -0.24986892 0.10000000)
		(1.55865922 -0.24955650 0.10000000)
		(1.57541899 -0.24713525 0.10000000)
		(1.59217877 -0.24262563 0.10000000)
		(1.60893855 -0.23606575 0.10000000)
		(1.62569832 -0.22751105 0.10000000)
		(1.64245810 -0.21703381 0.10000000)
		(1.65921788 -0.20472256 0.10000000)
		(1.67597765 -0.19068135 0.10000000)
		(1.69273743 -0.17502883 0.10000000)
		(1.70949721 -0.15789725 0.10000000)
		(1.72625698 -0.13943140 0.10000000)
		(1.74301676 -0.11978731 0.10000000)
		(1.75977654 -0.09913098 0.10000000)
		(1.77653631 -0.07763696 0.10000000)
		(1.79329609 -0.05548689 0.10000000)
		(1.81005587 -0.03286794 0.10000000)
		(1.82681564 -0.00997124 0.10000000)
		(1.84357542 0.01300972 0.10000000)
		(1.86033520 0.03588074 0.10000000)
		(1.87709497 0.05844856 0.10000000)
		(1.89385475 0.08052247 0.10000000)
		(1.91061453 0.10191594 0.10000000)
		(1.92737430 0.12244819 0.10000000)
		(1.94413408 0.14194572 0.10000000)
		(1.96089385 0.16024376 0.10000000)
		(1.97765363 0.17718769 0.10000000)
		(1.99441341 0.19263434 0.10000000)
		(2.01117318 0.20645316 0.10000000)
		(2.02793296 0.21852739 0.10000000)
		(2.04469274 0.22875500 0.10000000)
		(2.06145251 0.23704957 0.10000000)
		(2.07821229 0.24334099 0.10000000)
		(2.09497207 0.24757610 0.10000000)
		(2.11173184 0.24971912 0.10000000)
		(2.12849162 0.24975194 0.10000000)
		(2.14525140 0.24767428 0.10000000)
		(2.16201117 0.24350370 0.10000000)
		(2.17877095 0.23727544 0.10000000)
		(2.19553073 0.22904213 0.10000000)
		(2.21229050 0.21887334 0.10000000)
		(2.22905028 0.20685501 0.10000000)
		(2.24581006 0.19308868 0.10000000)
		(2.26256983 0.17769070 0.10000000)
		(2.27932961 0.16079119 0.10000000)
		(2.29608939 0.14253293 0.10000000)
		(2.31284916 0.12307023 0.10000000)
		(2.32960894 0.10256755 0.10000000)
		(2.34636872 0.08119814 0.10000000)
		(2.36312849 0.05914259 0.10000000)
		(2.37988827 0.03658726 0.10000000)
		(2.39664804 0.01372275 0.10000000)
		(2.41340782 -0.00925771 0.10000000)
		(2.43016760 -0.03215995 0.10000000)
		(2.44692737 -0.05479042 0.10000000)
		(2.46368715 -0.07695790 0.10000000)
		(2.48044693 -0.09847506 0.10000000)
		(2.49720670 -0.11916007 0.10000000)
		(2.51396648 -0.13883815 0.10000000)
		(2.53072626 -0.15734300 0.10000000)
		(2.54748603 -0.17451826 0.10000000)
		(2.56424581 -0.19021878 0.10000000)
		(2.58100559 -0.20431190 0.10000000)
		(2.59776536 -0.21667852 0.10000000)
		(2.61452514 -0.22721414 0.10000000)
		(2.63128492 -0.23582973 0.10000000)
		(2.64804469 -0.24245249 0.10000000)
		(2.66480447 -0.24702645 0.10000000)
		(2.68156425 -0.24951297 0.10000000)
		(2.69832402 -0.24989102 0.10000000)
		(2.71508380 -0.24815742 0.10000000)
		(2.73184358 -0.24432681 0.10000000)
		(2.74860335 -0.23843157 0.10000000)
		(2.76536313 -0.23052151 0.10000000)
		(2.78212291 -0.22066347 0.10000000)
		(2.79888268 -0.20894076 0.10000000)
		(2.81564246 -0.19545244 0.10000000)
		(2.83240223 -0.18031248 0.10000000)
		(2.84916201 -0.16364883 0.10000000)
		(2.86592179 -0.14560230 0.10000000)
		(2.88268156 -0.12632538 0.10000000)
		(2.89944134 -0.10598097 0.10000000)
		(2.91620112 -0.08474100 0.10000000)
		(2.93296089 -0.06278493 0.10000000)
		(2.95166480 -0.04545374 0.10000000)
		(2.97036872 -0.02994688 0.10000000)
		(2.98907263 -0.01626435 0.10000000)
		(3.00777654 -0.00440616 0.10000000)
		(3.02648045 0.00562769 0.10000000)
		(3.04518436 0.01383720 0.10000000)
		(3.06388827 0.02022238 0.10000000)
		(3.08259218 0.02478322 0.10000000)
		(3.10129609 0.02751972 0.10000000)
		(3.12000000 0.02843189 0.10000000)
		(3.14000000 0.02843189 0.10000000)
		(3.16000000 0.02843189 0.10000000)
		(3.18000000 0.02843189 0.10000000)
		(3.20000000 0.02843189 0.10000000)
		(3.22000000 0.02843189 0.10000000)
		(3.24000000 0.02843189 0.10000000)
		(3.26000000 0.02843189 0.10000000)
		(3.28000000 0.02843189 0.10000000)
		(3.30000000 0.02843189 0.10000000)
		(3.32000000 0.02843189 0.10000000)
		(3.34000000 0.02843189 0.10000000)
		(3.36000000 0.02843189 0.10000000)
		(3.38000000 0.02843189 0.10000000)
		(3.40000000 0.02843189 0.10000000)
		(3.42000000 0.02843189 0.10000000)
		(3.44000000 0.02843189 0.10000000)
		(3.46000000 0.02843189 0.10000000)
		(3.48000000 0.02843189 0.10000000)
		(3.50000000 0.02843189 0.10000000)
		(3.52000000 0.02843189 0.10000000)
		(3.54000000 0.02843189 0.10000000)
		(3.56000000 0.02843189 0.10000000)
		(3.58000000 0.02843189 0.10000000)
		(3.60000000 0.02843189 0.10000000)
		(3.62000000 0.02843189 0.10000000)
		(3.64000000 0.02843189 0.10000000)
		(3.66000000 0.02843189 0.10000000)
		(3.68000000 0.02843189 0.10000000)
		(3.70000000 0.02843189 0.10000000)
		(3.72000000 0.02843189 0.10000000)
		(3.74000000 0.02843189 0.10000000)
		(3.76000000 0.02843189 0.10000000)
		(3.78000000 0.02843189 0.10000000)
		(3.80000000 0.02843189 0.10000000)
		(3.82000000 0.02843189 0.10000000)
		(3.84000000 0.02843189 0.10000000)
		(3.86000000 0.02843189 0.10000000)
		(3.88000000 0.02843189 0.10000000)
		(3.90000000 0.02843189 0.10000000)
		(3.92000000 0.02843189 0.10000000)
		(3.94000000 0.02843189 0.10000000)
		(3.96000000 0.02843189 0.10000000)
		(3.98000000 0.02843189 0.10000000)
		(4.00000000 0.02843189 0.10000000)
	)
	polyLine 3 2
	(
		(-1.00000000 0.64900429 0.00000000)
		(-0.98000000 0.65186838 0.00000000)
		(-0.96000000 0.65473248 0.00000000)
		(-0.94000000 0.65759657 0.00000000)
		(-0.92000000 0.66046067 0.00000000)
		(-0.90000000 0.66332476 0.00000000)
		(-0.88000000 0.66618886 0.00000000)
		(-0.86000000 0.66905295 0.00000000)
		(-0.84000000 0.67191705 0.00000000)
		(-0.82000000 0.67478114 0.00000000)
		(-0.80000000 0.67764524 0.00000000)
		(-0.78000000 0.68050933 0.00000000)
		(-0.76000000 0.68337343 0.00000000)
		(-0.74000000 0.68623752 0.00000000)
		(-0.72000000 0.68910162 0.00000000)
		(-0.70000000 0.69196571 0.00000000)
		(-0.68000000 0.69482981 0.00000000)
		(-0.66000000 0.69769390 0.00000000)
		(-0.64000000 0.70055800 0.00000000)
		(-0.62000000 0.70342209 0.00000000)
		(-0.60000000 0.70628619 0.00000000)
		(-0.58000000 0.70915028 0.00000000)
		(-0.56000000 0.71201438 0.00000000)
		(-0.54000000 0.71487847 0.00000000)
		(-0.52000000 0.71774256 0.00000000)
		(-0.50000000 0.72060666 0.00000000)
		(-0.48000000 0.72347075 0.00000000)
		(-0.46000000 0.72633485 0.00000000)
		(-0.44000000 0.72919894 0.00000000)
		(-0.42000000 0.73206304 0.00000000)
		(-0.40000000 0.73492713 0.00000000)
		(-0.38000000 0.73779123 0.00000000)
		(-0.36000000 0.74065532 0.00000000)
		(-0.34000000 0.74351942 0.00000000)
		(-0.32000000 0.74638351 0.00000000)
		(-0.30000000 0.74924761 0.00000000)
		(-0.28000000 0.75211170 0.00000000)
		(-0.26000000 0.75497580 0.00000000)
		(-0.24000000 0.75783989 0.00000000)
		(-0.22000000 0.76070399 0.00000000)
		(-0.20000000 0.76356808 0.00000000)
		(-0.18000000 0.76643218 0.00000000)
		(-0.16000000 0.76929627 0.00000000)
		(-0.14000000 0.77216037 0.00000000)
		(-0.12000000 0.77502446 0.00000000)
		(-0.10000000 0.77788856 0.00000000)
		(-0.08162011 0.78124951 0.00000000)
		(-0.06324022 0.77960631 0.00000000)
		(-0.04486034 0.77295898 0.00000000)
		(-0.02648045 0.76130750 0.00000000)
		(-0.00810056 0.74465187 0.00000000)
		(0.01027933 0.72299211 0.00000000)
		(0.02865922 0.69632819 0.00000000)
		(0.04703911 0.66466014 0.00000000)
		(0.06541899 0.62798793 0.00000000)
		(0.08379888 0.58631159 0.00000000)
		(0.10055866 0.54207776 0.00000000)
		(0.11731844 0.49748837 0.00000000)
		(0.13407821 0.45292019 0.00000000)
		(0.15083799 0.40874986 0.00000000)
		(0.16759777 0.36535061 0.00000000)
		(0.18435754 0.32308920 0.00000000)
		(0.20111732 0.28232273 0.00000000)
		(0.21787709 0.24339571 0.00000000)
		(0.23463687 0.20663707 0.00000000)
		(0.25139665 0.17235743 0.00000000)
		(0.26815642 0.14084647 0.00000000)
		(0.28491620 0.11237047 0.00000000)
		(0.30167598 0.08717006 0.00000000)
		(0.31843575 0.06545818 0.00000000)
		(0.33519553 0.04741832 0.00000000)
		(0.35195531 0.03320290 0.00000000)
		(0.36871508 0.02293207 0.00000000)
		(0.38547486 0.01669260 0.00000000)
		(0.40223464 0.01453723 0.00000000)
		(0.41899441 0.01648416 0.00000000)
		(0.43575419 0.02251695 0.00000000)
		(0.45251397 0.03258462 0.00000000)
		(0.46927374 0.04660209 0.00000000)
		(0.48603352 0.06445090 0.00000000)
		(0.50279330 0.08598025 0.00000000)
		(0.51955307 0.11100818 0.00000000)
		(0.53631285 0.13932321 0.00000000)
		(0.55307263 0.17068607 0.00000000)
		(0.56983240 0.20483173 0.00000000)
		(0.58659218 0.24147166 0.00000000)
		(0.60335196 0.28029622 0.00000000)
		(0.62011173 0.32097735 0.00000000)
		(0.63687151 0.36317128 0.00000000)
		(0.65363128 0.40652145 0.00000000)
		(0.67039106 0.45066154 0.00000000)
		(0.68715084 0.49521856 0.00000000)
		(0.70391061 0.53981598 0.00000000)
		(0.72067039 0.58407694 0.00000000)
		(0.73743017 0.62762743 0.00000000)
		(0.75418994 0.67009943 0.00000000)
		(0.77094972 0.71113404 0.00000000)
		(0.78770950 0.75038450 0.00000000)
		(0.80446927 0.78751913 0.00000000)
		(0.82122905 0.82222415 0.00000000)
		(0.83798883 0.85420627 0.00000000)
		(0.85474860 0.88319523 0.00000000)
		(0.87150838 0.90894609 0.00000000)
		(0.88826816 0.93124122 0.00000000)
		(0.90502793 0.94989224 0.00000000)
		(0.92178771 0.96474153 0.00000000)
		(0.93854749 0.97566361 0.00000000)
		(0.95530726 0.98256619 0.00000000)
		(0.97206704 0.98539094 0.00000000)
		(0.98882682 0.98411399 0.00000000)
		(1.00558659 0.97874613 0.00000000)
		(1.02234637 0.96933272 0.00000000)
		(1.03910615 0.95595331 0.00000000)
		(1.05586592 0.93872095 0.00000000)
		(1.07262570 0.91778127 0.00000000)
		(1.08938547 0.89331120 0.00000000)
		(1.10614525 0.86551754 0.00000000)
		(1.12290503 0.83463515 0.00000000)
		(1.13966480 0.80092499 0.00000000)
		(1.15642458 0.76467192 0.00000000)
		(1.17318436 0.72618229 0.00000000)
		(1.18994413 0.68578135 0.00000000)
		(1.20670391 0.64381050 0.00000000)
		(1.22346369 0.60062442 0.00000000)
		(1.24022346 0.55658802 0.00000000)
		(1.25698324 0.51207344 0.00000000)
		(1.27374302 0.46745683 0.00000000)
		(1.29050279 0.42311523 0.00000000)
		(1.30726257 0.37942332 0.00000000)
		(1.32402235 0.33675033 0.00000000)
		(1.34078212 0.29545684 0.00000000)
		(1.35754190 0.25589180 0.00000000)
		(1.37430168 0.21838956 0.00000000)
		(1.39106145 0.18326700 0.00000000)
		(1.40782123 0.15082094 0.00000000)
		(1.42458101 0.12132554 0.00000000)
		(1.44134078 0.09503006 0.00000000)
		(1.45810056 0.07215670 0.00000000)
		(1.47486034 0.05289874 0.00000000)
		(1.49162011 0.03741893 0.00000000)
		(1.50837989 0.02584806 0.00000000)
		(1.52513966 0.01828393 0.00000000)
		(1.54189944 0.01479044 0.00000000)
		(1.55865922 0.01539711 0.00000000)
		(1.57541899 0.02009883 0.00000000)
		(1.59217877 0.02885586 0.00000000)
		(1.60893855 0.04159420 0.00000000)
		(1.62569832 0.05820621 0.00000000)
		(1.64245810 0.07855151 0.00000000)
		(1.65921788 0.10245818 0.00000000)
		(1.67597765 0.12972420 0.00000000)
		(1.69273743 0.16011916 0.00000000)
		(1.70949721 0.19338621 0.00000000)
		(1.72625698 0.22924425 0.00000000)
		(1.74301676 0.26739025 0.00000000)
		(1.75977654 0.30750188 0.00000000)
		(1.77653631 0.34924017 0.00000000)
		(1.79329609 0.39225243 0.00000000)
		(1.81005587 0.43617519 0.00000000)
		(1.82681564 0.48063729 0.00000000)
		(1.84357542 0.52526301 0.00000000)
		(1.86033520 0.56967525 0.00000000)
		(1.87709497 0.61349871 0.00000000)
		(1.89385475 0.65636307 0.00000000)
		(1.91061453 0.69790612 0.00000000)
		(1.92737430 0.73777680 0.00000000)
		(1.94413408 0.77563820 0.00000000)
		(1.96089385 0.81117037 0.00000000)
		(1.97765363 0.84407305 0.00000000)
		(1.99441341 0.87406822 0.00000000)
		(2.01117318 0.90090239 0.00000000)
		(2.02793296 0.92434882 0.00000000)
		(2.04469274 0.94420937 0.00000000)
		(2.06145251 0.96031622 0.00000000)
		(2.07821229 0.97253325 0.00000000)
		(2.09497207 0.98075724 0.00000000)
		(2.11173184 0.98491868 0.00000000)
		(2.12849162 0.98498241 0.00000000)
		(2.14525140 0.98094789 0.00000000)
		(2.16201117 0.97284922 0.00000000)
		(2.17877095 0.96075483 0.00000000)
		(2.19553073 0.94476692 0.00000000)
		(2.21229050 0.92502059 0.00000000)
		(2.22905028 0.90168272 0.00000000)
		(2.24581006 0.87495050 0.00000000)
		(2.26256983 0.84504983 0.00000000)
		(2.27932961 0.81223339 0.00000000)
		(2.29608939 0.77677849 0.00000000)
		(2.31284916 0.73898472 0.00000000)
		(2.32960894 0.69917145 0.00000000)
		(2.34636872 0.65767513 0.00000000)
		(2.36312849 0.61484641 0.00000000)
		(2.37988827 0.57104720 0.00000000)
		(2.39664804 0.52664762 0.00000000)
		(2.41340782 0.48202285 0.00000000)
		(2.43016760 0.43755000 0.00000000)
		(2.44692737 0.39360487 0.00000000)
		(2.46368715 0.35055882 0.00000000)
		(2.48044693 0.30877558 0.00000000)
		(2.49720670 0.26860825 0.00000000)
		(2.51396648 0.23039626 0.00000000)
		(2.53072626 0.19446249 0.00000000)
		(2.54748603 0.16111061 0.00000000)