/*--------------------------------*- C++ -*----------------------------------*\\
/*--------------------------------*- C++ -*----------------------------------*\\
| =========                 |                                                 |
| \\\\      /  F ield         | OpenFOAM: The Open Source CFD Toolbox           |
|  \\\\    /   O peration     | Version:  v2012                                 |
|   \\\\  /    A nd           | Website:  www.openfoam.com                      |
|    \\\\/     M anipulation  |                                                 |
\\*---------------------------------------------------------------------------*/
FoamFile
{
    version     2.0;
    format      ascii;
    class       dictionary;
    object      blockMeshDict;
}
// * * * * * * * * * * * * * * * * * * * * * * * * * * * * * * * * * * * * * //

scale   0.01;

xmin -1;
xmax 5;
ymin 0;
ymax 0.5;
zmin 0;
zmax 0.1;

vertices
(
    (-1.00000000 -0.05137026 0.00000000)
    (4.00000000 -0.24934418 0.00000000)
    (4.00000000 0.25065582 0.00000000)
    (-1.00000000 0.44862974 0.00000000)
    (-1.00000000 -0.05137026 0.10000000)
    (4.00000000 -0.24934418 0.10000000)
    (4.00000000 0.25065582 0.10000000)
    (-1.00000000 0.44862974 0.10000000)
);

blocks
(
    hex (0 1 2 3 4 5 6 7) (200 20 1) simpleGrading (1 1 1)
);

edges
(
	polyLine 0 1
	(
		(-1.00000000 -0.05137026 0.00000000)
		(-0.98000000 -0.05137026 0.00000000)
		(-0.96000000 -0.05137026 0.00000000)
		(-0.94000000 -0.05137026 0.00000000)
		(-0.92000000 -0.05137026 0.00000000)
		(-0.90000000 -0.05137026 0.00000000)
		(-0.88000000 -0.05137026 0.00000000)
		(-0.86000000 -0.05137026 0.00000000)
		(-0.84000000 -0.05137026 0.00000000)
		(-0.82000000 -0.05137026 0.00000000)
		(-0.80000000 -0.05137026 0.00000000)
		(-0.78000000 -0.05137026 0.00000000)
		(-0.76000000 -0.05137026 0.00000000)
		(-0.74000000 -0.05137026 0.00000000)
		(-0.72000000 -0.05137026 0.00000000)
		(-0.70000000 -0.05137026 0.00000000)
		(-0.68000000 -0.05137026 0.00000000)
		(-0.66000000 -0.05137026 0.00000000)
		(-0.64000000 -0.05137026 0.00000000)
		(-0.62000000 -0.05137026 0.00000000)
		(-0.60000000 -0.05137026 0.00000000)
		(-0.58000000 -0.05137026 0.00000000)
		(-0.56000000 -0.05137026 0.00000000)
		(-0.54000000 -0.05137026 0.00000000)
		(-0.52000000 -0.05137026 0.00000000)
		(-0.50000000 -0.05137026 0.00000000)
		(-0.48000000 -0.05137026 0.00000000)
		(-0.46000000 -0.05137026 0.00000000)
		(-0.44000000 -0.05137026 0.00000000)
		(-0.42000000 -0.05137026 0.00000000)
		(-0.40000000 -0.05137026 0.00000000)
		(-0.38000000 -0.05137026 0.00000000)
		(-0.36000000 -0.05137026 0.00000000)
		(-0.34000000 -0.05137026 0.00000000)
		(-0.32000000 -0.05137026 0.00000000)
		(-0.30000000 -0.05137026 0.00000000)
		(-0.28000000 -0.05137026 0.00000000)
		(-0.26000000 -0.05137026 0.00000000)
		(-0.24000000 -0.05137026 0.00000000)
		(-0.22000000 -0.05137026 0.00000000)
		(-0.20000000 -0.05137026 0.00000000)
		(-0.18000000 -0.05137026 0.00000000)
		(-0.16000000 -0.05137026 0.00000000)
		(-0.14000000 -0.05137026 0.00000000)
		(-0.12000000 -0.05137026 0.00000000)
		(-0.10000000 -0.05137026 0.00000000)
		(-0.08162011 -0.05225585 0.00000000)
		(-0.06324022 -0.05491261 0.00000000)
		(-0.04486034 -0.05934056 0.00000000)
		(-0.02648045 -0.06553968 0.00000000)
		(-0.00810056 -0.07350997 0.00000000)
		(0.01027933 -0.08325144 0.00000000)
		(0.02865922 -0.09476409 0.00000000)
		(0.04703911 -0.10804792 0.00000000)
		(0.06541899 -0.12310292 0.00000000)
		(0.08379888 -0.13992910 0.00000000)
		(0.10055866 -0.15553267 0.00000000)
		(0.11731844 -0.17020451 0.00000000)
		(0.13407821 -0.18385674 0.00000000)
		(0.15083799 -0.19640758 0.00000000)
		(0.16759777 -0.20778183 0.00000000)
		(0.18435754 -0.21791137 0.00000000)
		(0.20111732 -0.22673551 0.00000000)
		(0.21787709 -0.23420139 0.00000000)
		(0.23463687 -0.24026429 0.00000000)
		(0.25139665 -0.24488788 0.00000000)
		(0.26815642 -0.24804448 0.00000000)
		(0.28491620 -0.24971516 0.00000000)
		(0.30167598 -0.24988992 0.00000000)
		(0.31843575 -0.24856771 0.00000000)
		(0.33519553 -0.24575646 0.00000000)
		(0.35195531 -0.24147301 0.00000000)
		(0.36871508 -0.23574301 0.00000000)
		(0.38547486 -0.22860079 0.00000000)
		(0.40223464 -0.22008914 0.00000000)
		(0.41899441 -0.21025904 0.00000000)
		(0.43575419 -0.19916939 0.00000000)
		(0.45251397 -0.18688661 0.00000000)
		(0.46927374 -0.17348428 0.00000000)
		(0.48603352 -0.15904270 0.00000000)
		(0.50279330 -0.14364838 0.00000000)
		(0.51955307 -0.12739352 0.00000000)
		(0.53631285 -0.11037552 0.00000000)
		(0.55307263 -0.09269631 0.00000000)
		(0.56983240 -0.07446180 0.00000000)
		(0.58659218 -0.05578123 0.00000000)
		(0.60335196 -0.03676650 0.00000000)
		(0.62011173 -0.01753153 0.00000000)
		(0.63687151 0.00180847 0.00000000)
		(0.65363128 0.02113764 0.00000000)
		(0.67039106 0.04034018 0.00000000)
		(0.68715084 0.05930107 0.00000000)
		(0.70391061 0.07790671 0.00000000)
		(0.72067039 0.09604565 0.00000000)
		(0.73743017 0.11360923 0.00000000)
		(0.75418994 0.13049223 0.00000000)
		(0.77094972 0.14659352 0.00000000)
		(0.78770950 0.16181663 0.00000000)
		(0.80446927 0.17607039 0.00000000)
		(0.82122905 0.18926940 0.00000000)
		(0.83798883 0.20133458 0.00000000)
		(0.85474860 0.21219368 0.00000000)
		(0.87150838 0.22178162 0.00000000)
		(0.88826816 0.23004098 0.00000000)
		(0.90502793 0.23692229 0.00000000)
		(0.92178771 0.24238430 0.00000000)
		(0.93854749 0.24639432 0.00000000)
		(0.95530726 0.24892830 0.00000000)
		(0.97206704 0.24997109 0.00000000)
		(0.98882682 0.24951642 0.00000000)
		(1.00558659 0.24756702 0.00000000)
		(1.02234637 0.24413457 0.00000000)
		(1.03910615 0.23923963 0.00000000)
		(1.05586592 0.23291153 0.00000000)
		(1.07262570 0.22518816 0.00000000)
		(1.08938547 0.21611581 0.00000000)
		(1.10614525 0.20574882 0.00000000)
		(1.12290503 0.19414929 0.00000000)
		(1.13966480 0.18138670 0.00000000)
		(1.15642458 0.16753752 0.00000000)
		(1.17318436 0.15268470 0.00000000)
		(1.18994413 0.13691723 0.00000000)
		(1.20670391 0.12032955 0.00000000)
		(1.22346369 0.10302104 0.00000000)
		(1.24022346 0.08509538 0.00000000)
		(1.25698324 0.06665996 0.00000000)
		(1.27374302 0.04782521 0.00000000)
		(1.29050279 0.02870396 0.00000000)
		(1.30726257 0.00941077 0.00000000)
		(1.32402235 -0.00993881 0.00000000)
		(1.34078212 -0.02922884 0.00000000)
		(1.35754190 -0.04834378 0.00000000)
		(1.37430168 -0.06716912 0.00000000)
		(1.39106145 -0.08559208 0.00000000)
		(1.40782123 -0.10350230 0.00000000)
		(1.42458101 -0.12079249 0.00000000)
		(1.44134078 -0.13735907 0.00000000)
		(1.45810056 -0.15310280 0.00000000)
		(1.47486034 -0.16792937 0.00000000)
		(1.49162011 -0.18174995 0.00000000)
		(1.50837989 -0.19448177 0.00000000)
		(1.52513966 -0.20604854 0.00000000)
		(1.54189944 -0.21638097 0.00000000)
		(1.55865922 -0.22541718 0.00000000)
		(1.57541899 -0.23310302 0.00000000)
		(1.59217877 -0.23939246 0.00000000)
		(1.60893855 -0.24424782 0.00000000)
		(1.62569832 -0.24764001 0.00000000)
		(1.64245810 -0.24954871 0.00000000)
		(1.65921788 -0.24996249 0.00000000)
		(1.67597765 -0.24887887 0.00000000)
		(1.69273743 -0.24630434 0.00000000)
		(1.70949721 -0.24225432 0.00000000)
		(1.72625698 -0.23675308 0.00000000)
		(1.74301676 -0.22983357 0.00000000)
		(1.75977654 -0.22153724 0.00000000)
		(1.77653631 -0.21191379 0.00000000)
		(1.79329609 -0.20102087 0.00000000)
		(1.81005587 -0.18892373 0.00000000)
		(1.82681564 -0.17569485 0.00000000)
		(1.84357542 -0.16141346 0.00000000)
		(1.86033520 -0.14616513 0.00000000)
		(1.87709497 -0.13004120 0.00000000)
		(1.89385475 -0.11313825 0.00000000)
		(1.91061453 -0.09555755 0.00000000)
		(1.92737430 -0.07740441 0.00000000)
		(1.94413408 -0.05878758 0.00000000)
		(1.96089385 -0.03981858 0.00000000)
		(1.97765363 -0.02061105 0.00000000)
		(1.99441341 -0.00128005 0.00000000)
		(2.01117318 0.01805862 0.00000000)
		(2.02793296 0.03728911 0.00000000)
		(2.04469274 0.05629622 0.00000000)
		(2.06145251 0.07496609 0.00000000)
		(2.07821229 0.09318687 0.00000000)
		(2.09497207 0.11084942 0.00000000)
		(2.11173184 0.12784792 0.00000000)
		(2.12849162 0.14408055 0.00000000)
		(2.14525140 0.15945006 0.00000000)
		(2.16201117 0.17386439 0.00000000)
		(2.17877095 0.18723718 0.00000000)
		(2.19553073 0.19948833 0.00000000)
		(2.21229050 0.21054444 0.00000000)
		(2.22905028 0.22033929 0.00000000)
		(2.24581006 0.22881419 0.00000000)
		(2.26256983 0.23591838 0.00000000)
		(2.27932961 0.24160931 0.00000000)
		(2.29608939 0.24585287 0.00000000)
		(2.31284916 0.24862364 0.00000000)
		(2.32960894 0.24990504 0.00000000)
		(2.34636872 0.24968938 0.00000000)
		(2.36312849 0.24797796 0.00000000)
		(2.37988827 0.24478102 0.00000000)
		(2.39664804 0.24011772 0.00000000)
		(2.41340782 0.23401600 0.00000000)
		(2.43016760 0.22651240 0.00000000)
		(2.44692737 0.21765188 0.00000000)
		(2.46368715 0.20748751 0.00000000)
		(2.48044693 0.19608019 0.00000000)
		(2.49720670 0.18349826 0.00000000)
		(2.51396648 0.16981707 0.00000000)
		(2.53072626 0.15511860 0.00000000)
		(2.54748603 0.13949088 0.00000000)
		(2.56424581 0.12302755 0.00000000)
		(2.58100559 0.10582722 0.00000000)
		(2.59776536 0.08799293 0.00000000)
		(2.61452514 0.06963152 0.00000000)
		(2.63128492 0.05085298 0.00000000)
		(2.64804469 0.03176981 0.00000000)
		(2.66480447 0.01249632 0.00000000)
		(2.68156425 -0.00685203 0.00000000)
		(2.69832402 -0.02615933 0.00000000)
		(2.71508380 -0.04530992 0.00000000)
		(2.73184358 -0.06418909 0.00000000)
		(2.74860335 -0.08268373 0.00000000)
		(2.76536313 -0.10068305 0.00000000)
		(2.78212291 -0.11807924 0.00000000)
		(2.79888268 -0.13476806 0.00000000)
		(2.81564246 -0.15064956 0.00000000)
		(2.83240223 -0.16562859 0.00000000)
		(2.84916201 -0.17961543 0.00000000)
		(2.86592179 -0.19252628 0.00000000)
		(2.88268156 -0.20428379 0.00000000)
		(2.89944134 -0.21481755 0.00000000)
		(2.91620112 -0.22406444 0.00000000)
		(2.93296089 -0.23196907 0.00000000)
		(2.95166480 -0.23527034 0.00000000)
		(2.97036872 -0.23822411 0.00000000)
		(2.98907263 -0.24083038 0.00000000)
		(3.00777654 -0.24308914 0.00000000)
		(3.02648045 -0.24500040 0.00000000)
		(3.04518436 -0.24656416 0.00000000)
		(3.06388827 -0.24778042 0.00000000)
		(3.08259218 -0.24864917 0.00000000)
		(3.10129609 -0.24917043 0.00000000)
		(3.12000000 -0.24934418 0.00000000)
		(3.14000000 -0.24934418 0.00000000)
		(3.16000000 -0.24934418 0.00000000)
		(3.18000000 -0.24934418 0.00000000)
		(3.20000000 -0.24934418 0.00000000)
		(3.22000000 -0.24934418 0.00000000)
		(3.24000000 -0.24934418 0.00000000)
		(3.26000000 -0.24934418 0.00000000)
		(3.28000000 -0.24934418 0.00000000)
		(3.30000000 -0.24934418 0.00000000)
		(3.32000000 -0.24934418 0.00000000)
		(3.34000000 -0.24934418 0.00000000)
		(3.36000000 -0.24934418 0.00000000)
		(3.38000000 -0.24934418 0.00000000)
		(3.40000000 -0.24934418 0.00000000)
		(3.42000000 -0.24934418 0.00000000)
		(3.44000000 -0.24934418 0.00000000)
		(3.46000000 -0.24934418 0.00000000)
		(3.48000000 -0.24934418 0.00000000)
		(3.50000000 -0.24934418 0.00000000)
		(3.52000000 -0.24934418 0.00000000)
		(3.54000000 -0.24934418 0.00000000)
		(3.56000000 -0.24934418 0.00000000)
		(3.58000000 -0.24934418 0.00000000)
		(3.60000000 -0.24934418 0.00000000)
		(3.62000000 -0.24934418 0.00000000)
		(3.64000000 -0.24934418 0.00000000)
		(3.66000000 -0.24934418 0.00000000)
		(3.68000000 -0.24934418 0.00000000)
		(3.70000000 -0.24934418 0.00000000)
		(3.72000000 -0.24934418 0.00000000)
		(3.74000000 -0.24934418 0.00000000)
		(3.76000000 -0.24934418 0.00000000)
		(3.78000000 -0.24934418 0.00000000)
		(3.80000000 -0.24934418 0.00000000)
		(3.82000000 -0.24934418 0.00000000)
		(3.84000000 -0.24934418 0.00000000)
		(3.86000000 -0.24934418 0.00000000)
		(3.88000000 -0.24934418 0.00000000)
		(3.90000000 -0.24934418 0.00000000)
		(3.92000000 -0.24934418 0.00000000)
		(3.94000000 -0.24934418 0.00000000)
		(3.96000000 -0.24934418 0.00000000)
		(3.98000000 -0.24934418 0.00000000)
		(4.00000000 -0.24934418 0.00000000)
	)
	polyLine 4 5
	(
		(-1.00000000 -0.05137026 0.10000000)
		(-0.98000000 -0.05137026 0.10000000)
		(-0.96000000 -0.05137026 0.10000000)
		(-0.94000000 -0.05137026 0.10000000)
		(-0.92000000 -0.05137026 0.10000000)
		(-0.90000000 -0.05137026 0.10000000)
		(-0.88000000 -0.05137026 0.10000000)
		(-0.86000000 -0.05137026 0.10000000)
		(-0.84000000 -0.05137026 0.10000000)
		(-0.82000000 -0.05137026 0.10000000)
		(-0.80000000 -0.05137026 0.10000000)
		(-0.78000000 -0.05137026 0.10000000)
		(-0.76000000 -0.05137026 0.10000000)
		(-0.74000000 -0.05137026 0.10000000)
		(-0.72000000 -0.05137026 0.10000000)
		(-0.70000000 -0.05137026 0.10000000)
		(-0.68000000 -0.05137026 0.10000000)
		(-0.66000000 -0.05137026 0.10000000)
		(-0.64000000 -0.05137026 0.10000000)
		(-0.62000000 -0.05137026 0.10000000)
		(-0.60000000 -0.05137026 0.10000000)
		(-0.58000000 -0.05137026 0.10000000)
		(-0.56000000 -0.05137026 0.10000000)
		(-0.54000000 -0.05137026 0.10000000)
		(-0.52000000 -0.05137026 0.10000000)
		(-0.50000000 -0.05137026 0.10000000)
		(-0.48000000 -0.05137026 0.10000000)
		(-0.46000000 -0.05137026 0.10000000)
		(-0.44000000 -0.05137026 0.10000000)
		(-0.42000000 -0.05137026 0.10000000)
		(-0.40000000 -0.05137026 0.10000000)
		(-0.38000000 -0.05137026 0.10000000)
		(-0.36000000 -0.05137026 0.10000000)
		(-0.34000000 -0.05137026 0.10000000)
		(-0.32000000 -0.05137026 0.10000000)
		(-0.30000000 -0.05137026 0.10000000)
		(-0.28000000 -0.05137026 0.10000000)
		(-0.26000000 -0.05137026 0.10000000)
		(-0.24000000 -0.05137026 0.10000000)
		(-0.22000000 -0.05137026 0.10000000)
		(-0.20000000 -0.05137026 0.10000000)
		(-0.18000000 -0.05137026 0.10000000)
		(-0.16000000 -0.05137026 0.10000000)
		(-0.14000000 -0.05137026 0.10000000)
		(-0.12000000 -0.05137026 0.10000000)
		(-0.10000000 -0.05137026 0.10000000)
		(-0.08162011 -0.05225585 0.10000000)
		(-0.06324022 -0.05491261 0.10000000)
		(-0.04486034 -0.05934056 0.10000000)
		(-0.02648045 -0.06553968 0.10000000)
		(-0.00810056 -0.07350997 0.10000000)
		(0.01027933 -0.08325144 0.10000000)
		(0.02865922 -0.09476409 0.10000000)
		(0.04703911 -0.10804792 0.10000000)
		(0.06541899 -0.12310292 0.10000000)
		(0.08379888 -0.13992910 0.10000000)
		(0.10055866 -0.15553267 0.10000000)
		(0.11731844 -0.17020451 0.10000000)
		(0.13407821 -0.18385674 0.10000000)
		(0.15083799 -0.19640758 0.10000000)
		(0.16759777 -0.20778183 0.10000000)
		(0.18435754 -0.21791137 0.10000000)
		(0.20111732 -0.22673551 0.10000000)
		(0.21787709 -0.23420139 0.10000000)
		(0.23463687 -0.24026429 0.10000000)
		(0.25139665 -0.24488788 0.10000000)
		(0.26815642 -0.24804448 0.10000000)
		(0.28491620 -0.24971516 0.10000000)
		(0.30167598 -0.24988992 0.10000000)
		(0.31843575 -0.24856771 0.10000000)
		(0.33519553 -0.24575646 0.10000000)
		(0.35195531 -0.24147301 0.10000000)
		(0.36871508 -0.23574301 0.10000000)
		(0.38547486 -0.22860079 0.10000000)
		(0.40223464 -0.22008914 0.10000000)
		(0.41899441 -0.21025904 0.10000000)
		(0.43575419 -0.19916939 0.10000000)
		(0.45251397 -0.18688661 0.10000000)
		(0.46927374 -0.17348428 0.10000000)
		(0.48603352 -0.15904270 0.10000000)
		(0.50279330 -0.14364838 0.10000000)
		(0.51955307 -0.12739352 0.10000000)
		(0.53631285 -0.11037552 0.10000000)
		(0.55307263 -0.09269631 0.10000000)
		(0.56983240 -0.07446180 0.10000000)
		(0.58659218 -0.05578123 0.10000000)
		(0.60335196 -0.03676650 0.10000000)
		(0.62011173 -0.01753153 0.10000000)
		(0.63687151 0.00180847 0.10000000)
		(0.65363128 0.02113764 0.10000000)
		(0.67039106 0.04034018 0.10000000)
		(0.68715084 0.05930107 0.10000000)
		(0.70391061 0.07790671 0.10000000)
		(0.72067039 0.09604565 0.10000000)
		(0.73743017 0.11360923 0.10000000)
		(0.75418994 0.13049223 0.10000000)
		(0.77094972 0.14659352 0.10000000)
		(0.78770950 0.16181663 0.10000000)
		(0.80446927 0.17607039 0.10000000)
		(0.82122905 0.18926940 0.10000000)
		(0.83798883 0.20133458 0.10000000)
		(0.85474860 0.21219368 0.10000000)
		(0.87150838 0.22178162 0.10000000)
		(0.88826816 0.23004098 0.10000000)
		(0.90502793 0.23692229 0.10000000)
		(0.92178771 0.24238430 0.10000000)
		(0.93854749 0.24639432 0.10000000)
		(0.95530726 0.24892830 0.10000000)
		(0.97206704 0.24997109 0.10000000)
		(0.98882682 0.24951642 0.10000000)
		(1.00558659 0.24756702 0.10000000)
		(1.02234637 0.24413457 0.10000000)
		(1.03910615 0.23923963 0.10000000)
		(1.05586592 0.23291153 0.10000000)
		(1.07262570 0.22518816 0.10000000)
		(1.08938547 0.21611581 0.10000000)
		(1.10614525 0.20574882 0.10000000)
		(1.12290503 0.19414929 0.10000000)
		(1.13966480 0.18138670 0.10000000)
		(1.15642458 0.16753752 0.10000000)
		(1.17318436 0.15268470 0.10000000)
		(1.18994413 0.13691723 0.10000000)
		(1.20670391 0.12032955 0.10000000)
		(1.22346369 0.10302104 0.10000000)
		(1.24022346 0.08509538 0.10000000)
		(1.25698324 0.06665996 0.10000000)
		(1.27374302 0.04782521 0.10000000)
		(1.29050279 0.02870396 0.10000000)
		(1.30726257 0.00941077 0.10000000)
		(1.32402235 -0.00993881 0.10000000)
		(1.34078212 -0.02922884 0.10000000)
		(1.35754190 -0.04834378 0.10000000)
		(1.37430168 -0.06716912 0.10000000)
		(1.39106145 -0.08559208 0.10000000)
		(1.40782123 -0.10350230 0.10000000)
		(1.42458101 -0.12079249 0.10000000)
		(1.44134078 -0.13735907 0.10000000)
		(1.45810056 -0.15310280 0.10000000)
		(1.47486034 -0.16792937 0.10000000)
		(1.49162011 -0.18174995 0.10000000)
		(1.50837989 -0.19448177 0.10000000)
		(1.52513966 -0.20604854 0.10000000)
		(1.54189944 -0.21638097 0.10000000)
		(1.55865922 -0.22541718 0.10000000)
		(1.57541899 -0.23310302 0.10000000)
		(1.59217877 -0.23939246 0.10000000)
		(1.60893855 -0.24424782 0.10000000)
		(1.62569832 -0.24764001 0.10000000)
		(1.64245810 -0.24954871 0.10000000)
		(1.65921788 -0.24996249 0.10000000)
		(1.67597765 -0.24887887 0.10000000)
		(1.69273743 -0.24630434 0.10000000)
		(1.70949721 -0.24225432 0.10000000)
		(1.72625698 -0.23675308 0.10000000)
		(1.74301676 -0.22983357 0.10000000)
		(1.75977654 -0.22153724 0.10000000)
		(1.77653631 -0.21191379 0.10000000)
		(1.79329609 -0.20102087 0.10000000)
		(1.81005587 -0.18892373 0.10000000)
		(1.82681564 -0.17569485 0.10000000)
		(1.84357542 -0.16141346 0.10000000)
		(1.86033520 -0.14616513 0.10000000)
		(1.87709497 -0.13004120 0.10000000)
		(1.89385475 -0.11313825 0.10000000)
		(1.91061453 -0.09555755 0.10000000)
		(1.92737430 -0.07740441 0.10000000)
		(1.94413408 -0.05878758 0.10000000)
		(1.96089385 -0.03981858 0.10000000)
		(1.97765363 -0.02061105 0.10000000)
		(1.99441341 -0.00128005 0.10000000)
		(2.01117318 0.01805862 0.10000000)
		(2.02793296 0.03728911 0.10000000)
		(2.04469274 0.05629622 0.10000000)
		(2.06145251 0.07496609 0.10000000)
		(2.07821229 0.09318687 0.10000000)
		(2.09497207 0.11084942 0.10000000)
		(2.11173184 0.12784792 0.10000000)
		(2.12849162 0.14408055 0.10000000)
		(2.14525140 0.15945006 0.10000000)
		(2.16201117 0.17386439 0.10000000)
		(2.17877095 0.18723718 0.10000000)
		(2.19553073 0.19948833 0.10000000)
		(2.21229050 0.21054444 0.10000000)
		(2.22905028 0.22033929 0.10000000)
		(2.24581006 0.22881419 0.10000000)
		(2.26256983 0.23591838 0.10000000)
		(2.27932961 0.24160931 0.10000000)
		(2.29608939 0.24585287 0.10000000)
		(2.31284916 0.24862364 0.10000000)
		(2.32960894 0.24990504 0.10000000)
		(2.34636872 0.24968938 0.10000000)
		(2.36312849 0.24797796 0.10000000)
		(2.37988827 0.24478102 0.10000000)
		(2.39664804 0.24011772 0.10000000)
		(2.41340782 0.23401600 0.10000000)
		(2.43016760 0.22651240 0.10000000)
		(2.44692737 0.21765188 0.10000000)
		(2.46368715 0.20748751 0.10000000)
		(2.48044693 0.19608019 0.10000000)
		(2.49720670 0.18349826 0.10000000)
		(2.51396648 0.16981707 0.10000000)
		(2.53072626 0.15511860 0.10000000)
		(2.54748603 0.13949088 0.10000000)
		(2.56424581 0.12302755 0.10000000)
		(2.58100559 0.10582722 0.10000000)
		(2.59776536 0.08799293 0.10000000)
		(2.61452514 0.06963152 0.10000000)
		(2.63128492 0.05085298 0.10000000)
		(2.64804469 0.03176981 0.10000000)
		(2.66480447 0.01249632 0.10000000)
		(2.68156425 -0.00685203 0.10000000)
		(2.69832402 -0.02615933 0.10000000)
		(2.71508380 -0.04530992 0.10000000)
		(2.73184358 -0.06418909 0.10000000)
		(2.74860335 -0.08268373 0.10000000)
		(2.76536313 -0.10068305 0.10000000)
		(2.78212291 -0.11807924 0.10000000)
		(2.79888268 -0.13476806 0.10000000)
		(2.81564246 -0.15064956 0.10000000)
		(2.83240223 -0.16562859 0.10000000)
		(2.84916201 -0.17961543 0.10000000)
		(2.86592179 -0.19252628 0.10000000)
		(2.88268156 -0.20428379 0.10000000)
		(2.89944134 -0.21481755 0.10000000)
		(2.91620112 -0.22406444 0.10000000)
		(2.93296089 -0.23196907 0.10000000)
		(2.95166480 -0.23527034 0.10000000)
		(2.97036872 -0.23822411 0.10000000)
		(2.98907263 -0.24083038 0.10000000)
		(3.00777654 -0.24308914 0.10000000)
		(3.02648045 -0.24500040 0.10000000)
		(3.04518436 -0.24656416 0.10000000)
		(3.06388827 -0.24778042 0.10000000)
		(3.08259218 -0.24864917 0.10000000)
		(3.10129609 -0.24917043 0.10000000)
		(3.12000000 -0.24934418 0.10000000)
		(3.14000000 -0.24934418 0.10000000)
		(3.16000000 -0.24934418 0.10000000)
		(3.18000000 -0.24934418 0.10000000)
		(3.20000000 -0.24934418 0.10000000)
		(3.22000000 -0.24934418 0.10000000)
		(3.24000000 -0.24934418 0.10000000)
		(3.26000000 -0.24934418 0.10000000)
		(3.28000000 -0.24934418 0.10000000)
		(3.30000000 -0.24934418 0.10000000)
		(3.32000000 -0.24934418 0.10000000)
		(3.34000000 -0.24934418 0.10000000)
		(3.36000000 -0.24934418 0.10000000)
		(3.38000000 -0.24934418 0.10000000)
		(3.40000000 -0.24934418 0.10000000)
		(3.42000000 -0.24934418 0.10000000)
		(3.44000000 -0.24934418 0.10000000)
		(3.46000000 -0.24934418 0.10000000)
		(3.48000000 -0.24934418 0.10000000)
		(3.50000000 -0.24934418 0.10000000)
		(3.52000000 -0.24934418 0.10000000)
		(3.54000000 -0.24934418 0.10000000)
		(3.56000000 -0.24934418 0.10000000)
		(3.58000000 -0.24934418 0.10000000)
		(3.60000000 -0.24934418 0.10000000)
		(3.62000000 -0.24934418 0.10000000)
		(3.64000000 -0.24934418 0.10000000)
		(3.66000000 -0.24934418 0.10000000)
		(3.68000000 -0.24934418 0.10000000)
		(3.70000000 -0.24934418 0.10000000)
		(3.72000000 -0.24934418 0.10000000)
		(3.74000000 -0.24934418 0.10000000)
		(3.76000000 -0.24934418 0.10000000)
		(3.78000000 -0.24934418 0.10000000)
		(3.80000000 -0.24934418 0.10000000)
		(3.82000000 -0.24934418 0.10000000)
		(3.84000000 -0.24934418 0.10000000)
		(3.86000000 -0.24934418 0.10000000)
		(3.88000000 -0.24934418 0.10000000)
		(3.90000000 -0.24934418 0.10000000)
		(3.92000000 -0.24934418 0.10000000)
		(3.94000000 -0.24934418 0.10000000)
		(3.96000000 -0.24934418 0.10000000)
		(3.98000000 -0.24934418 0.10000000)
		(4.00000000 -0.24934418 0.10000000)
	)
	polyLine 3 2
	(
		(-1.00000000 0.44862974 0.00000000)
		(-0.98000000 0.44771430 0.00000000)
		(-0.96000000 0.44679885 0.00000000)
		(-0.94000000 0.44588341 0.00000000)
		(-0.92000000 0.44496797 0.00000000)
		(-0.90000000 0.44405253 0.00000000)
		(-0.88000000 0.44313709 0.00000000)
		(-0.86000000 0.44222164 0.00000000)
		(-0.84000000 0.44130620 0.00000000)
		(-0.82000000 0.44039076 0.00000000)
		(-0.80000000 0.43947532 0.00000000)
		(-0.78000000 0.43855987 0.00000000)
		(-0.76000000 0.43764443 0.00000000)
		(-0.74000000 0.43672899 0.00000000)
		(-0.72000000 0.43581355 0.00000000)
		(-0.70000000 0.43489811 0.00000000)
		(-0.68000000 0.43398266 0.00000000)
		(-0.66000000 0.43306722 0.00000000)
		(-0.64000000 0.43215178 0.00000000)
		(-0.62000000 0.43123634 0.00000000)
		(-0.60000000 0.43032089 0.00000000)
		(-0.58000000 0.42940545 0.00000000)
		(-0.56000000 0.42849001 0.00000000)
		(-0.54000000 0.42757457 0.00000000)
		(-0.52000000 0.42665913 0.00000000)
		(-0.50000000 0.42574368 0.00000000)
		(-0.48000000 0.42482824 0.00000000)
		(-0.46000000 0.42391280 0.00000000)
		(-0.44000000 0.42299736 0.00000000)
		(-0.42000000 0.42208191 0.00000000)
		(-0.40000000 0.42116647 0.00000000)
		(-0.38000000 0.42025103 0.00000000)
		(-0.36000000 0.41933559 0.00000000)
		(-0.34000000 0.41842015 0.00000000)
		(-0.32000000 0.41750470 0.00000000)
		(-0.30000000 0.41658926 0.00000000)
		(-0.28000000 0.41567382 0.00000000)
		(-0.26000000 0.41475838 0.00000000)
		(-0.24000000 0.41384293 0.00000000)
		(-0.22000000 0.41292749 0.00000000)
		(-0.20000000 0.41201205 0.00000000)
		(-0.18000000 0.41109661 0.00000000)
		(-0.16000000 0.41018117 0.00000000)
		(-0.14000000 0.40926572 0.00000000)
		(-0.12000000 0.40835028 0.00000000)
		(-0.10000000 0.40743484 0.00000000)
		(-0.08162011 0.40790574 0.00000000)
		(-0.06324022 0.40450421 0.00000000)
		(-0.04486034 0.39723025 0.00000000)
		(-0.02648045 0.38608385 0.00000000)
		(-0.00810056 0.37106502 0.00000000)
		(0.01027933 0.35217376 0.00000000)
		(0.02865922 0.32941006 0.00000000)
		(0.04703911 0.30277393 0.00000000)
		(0.06541899 0.27226537 0.00000000)
		(0.08379888 0.23788437 0.00000000)
		(0.10055866 0.20865573 0.00000000)
		(0.11731844 0.18117240 0.00000000)
		(0.13407821 0.15559899 0.00000000)
		(0.15083799 0.13208873 0.00000000)
		(0.16759777 0.11078243 0.00000000)
		(0.18435754 0.09180775 0.00000000)
		(0.20111732 0.07527834 0.00000000)
		(0.21787709 0.06129323 0.00000000)
		(0.23463687 0.04993619 0.00000000)
		(0.25139665 0.04127526 0.00000000)
		(0.26815642 0.03536233 0.00000000)
		(0.28491620 0.03223280 0.00000000)
		(0.30167598 0.03190544 0.00000000)
		(0.31843575 0.03438220 0.00000000)
		(0.33519553 0.03964824 0.00000000)
		(0.35195531 0.04767202 0.00000000)
		(0.36871508 0.05840547 0.00000000)
		(0.38547486 0.07178430 0.00000000)
		(0.40223464 0.08772835 0.00000000)
		(0.41899441 0.10614212 0.00000000)
		(0.43575419 0.12691529 0.00000000)
		(0.45251397 0.14992343 0.00000000)
		(0.46927374 0.17502871 0.00000000)
		(0.48603352 0.20208072 0.00000000)
		(0.50279330 0.23091742 0.00000000)
		(0.51955307 0.26136606 0.00000000)
		(0.53631285 0.29324424 0.00000000)
		(0.55307263 0.32636099 0.00000000)
		(0.56983240 0.36051792 0.00000000)
		(0.58659218 0.39551043 0.00000000)
		(0.60335196 0.43112887 0.00000000)
		(0.62011173 0.46715989 0.00000000)
		(0.63687151 0.50338764 0.00000000)
		(0.65363128 0.53959509 0.00000000)
		(0.67039106 0.57556535 0.00000000)
		(0.68715084 0.61108294 0.00000000)
		(0.70391061 0.64593508 0.00000000)
		(0.72067039 0.67991300 0.00000000)
		(0.73743017 0.71281315 0.00000000)
		(0.75418994 0.74443844 0.00000000)
		(0.77094972 0.77459942 0.00000000)
		(0.78770950 0.80311542 0.00000000)
		(0.80446927 0.82981560 0.00000000)
		(0.82122905 0.85454002 0.00000000)
		(0.83798883 0.87714056 0.00000000)
		(0.85474860 0.89748185 0.00000000)
		(0.87150838 0.91544201 0.00000000)
		(0.88826816 0.93091348 0.00000000)
		(0.90502793 0.94380355 0.00000000)
		(0.92178771 0.95403502 0.00000000)
		(0.93854749 0.96154659 0.00000000)
		(0.95530726 0.96629326 0.00000000)
		(0.97206704 0.96824661 0.00000000)
		(0.98882682 0.96739492 0.00000000)
		(1.00558659 0.96374330 0.00000000)
		(1.02234637 0.95731362 0.00000000)
		(1.03910615 0.94814441 0.00000000)
		(1.05586592 0.93629058 0.00000000)
		(1.07262570 0.92182316 0.00000000)
		(1.08938547 0.90482880 0.00000000)
		(1.10614525 0.88540932 0.00000000)
		(1.12290503 0.86368104 0.00000000)
		(1.13966480 0.83977413 0.00000000)
		(1.15642458 0.81383180 0.00000000)
		(1.17318436 0.78600946 0.00000000)
		(1.18994413 0.75647378 0.00000000)
		(1.20670391 0.72540169 0.00000000)
		(1.22346369 0.69297933 0.00000000)
		(1.24022346 0.65940093 0.00000000)
		(1.25698324 0.62486764 0.00000000)
		(1.27374302 0.58958633 0.00000000)
		(1.29050279 0.55376835 0.00000000)
		(1.30726257 0.51762827 0.00000000)
		(1.32402235 0.48138259 0.00000000)
		(1.34078212 0.44524844 0.00000000)
		(1.35754190 0.40944228 0.00000000)
		(1.37430168 0.37417860 0.00000000)
		(1.39106145 0.33966866 0.00000000)
		(1.40782123 0.30611918 0.00000000)
		(1.42458101 0.27373115 0.00000000)
		(1.44134078 0.24269858 0.00000000)
		(1.45810056 0.21320737 0.00000000)
		(1.47486034 0.18543420 0.00000000)
		(1.49162011 0.15954543 0.00000000)
		(1.50837989 0.13569616 0.00000000)
		(1.52513966 0.11402925 0.00000000)
		(1.54189944 0.09467450 0.00000000)
		(1.55865922 0.07774785 0.00000000)
		(1.57541899 0.06335071 0.00000000)
		(1.59217877 0.05156931 0.00000000)
		(1.60893855 0.04247424 0.00000000)
		(1.62569832 0.03611998 0.00000000)
		(1.64245810 0.03254459 0.00000000)
		(1.65921788 0.03176950 0.00000000)
		(1.67597765 0.03379934 0.00000000)
		(1.69273743 0.03862195 0.00000000)
		(1.70949721 0.04620846 0.00000000)
		(1.72625698 0.05651340 0.00000000)
		(1.74301676 0.06947505 0.00000000)
		(1.75977654 0.08501577 0.00000000)
		(1.77653631 0.10304244 0.00000000)
		(1.79329609 0.12344709 0.00000000)
		(1.81005587 0.14610748 0.00000000)
		(1.82681564 0.17088787 0.00000000)
		(1.84357542 0.19763980 0.00000000)
		(1.86033520 0.22620303 0.00000000)
		(1.87709497 0.25640643 0.00000000)
		(1.89385475 0.28806908 0.00000000)
		(1.91061453 0.32100131 0.00000000)
		(1.92737430 0.35500582 0.00000000)
		(1.94413408 0.38987893 0.00000000)
		(1.96089385 0.42541172 0.00000000)
		(1.97765363 0.46139132 0.00000000)
		(1.99441341 0.49760221 0.00000000)
		(2.01117318 0.53382747 0.00000000)
		(2.02793296 0.56985008 0.00000000)
		(2.04469274 0.60545426 0.00000000)
		(2.06145251 0.64042671 0.00000000)
		(2.07821229 0.67455793 0.00000000)
		(2.09497207 0.70764347 0.00000000)
		(2.11173184 0.73948512 0.00000000)
		(2.12849162 0.76989213 0.00000000)
		(2.14525140 0.79868235 0.00000000)
		(2.16201117 0.82568331 0.00000000)
		(2.17877095 0.85073327 0.00000000)
		(2.19553073 0.87368216 0.00000000)
		(2.21229050 0.89439250 0.00000000)
		(2.22905028 0.91274023 0.00000000)
		(2.24581006 0.92861545 0.00000000)
		(2.26256983 0.94192304 0.00000000)
		(2.27932961 0.95258329 0.00000000)
		(2.29608939 0.96053234 0.00000000)
		(2.31284916 0.96572257 0.00000000)
		(2.32960894 0.96812289 0.00000000)
		(2.34636872 0.96771891 0.00000000)
		(2.36312849 0.96451307 0.00000000)
		(2.37988827 0.95852455 0.00000000)
		(2.39664804 0.94978925 0.00000000)
		(2.41340782 0.93835948 0.00000000)
		(2.43016760 0.92430372 0.00000000)
		(2.44692737 0.90770617 0.00000000)
		(2.46368715 0.88866625 0.00000000)