/*--------------------------------*- C++ -*----------------------------------*\\
/*--------------------------------*- C++ -*----------------------------------*\\
| =========                 |                                                 |
| \\\\      /  F ield         | OpenFOAM: The Open Source CFD Toolbox           |
|  \\\\    /   O peration     | Version:  v2012                                 |
|   \\\\  /    A nd           | Website:  www.openfoam.com                      |
|    \\\\/     M anipulation  |                                                 |
\\*---------------------------------------------------------------------------*/
FoamFile
{
    version     2.0;
    format      ascii;
    class       dictionary;
    object      blockMeshDict;
}
// * * * * * * * * * * * * * * * * * * * * * * * * * * * * * * * * * * * * * //

scale   0.01;

xmin -1;
xmax 5;
ymin 0;
ymax 0.5;
zmin 0;
zmax 0.1;

vertices
(
    (-1.00000000 0.21635214 0.00000000)
    (4.00000000 -0.01140628 0.00000000)
    (4.00000000 0.48859372 0.00000000)
    (-1.00000000 0.71635214 0.00000000)
    (-1.00000000 0.21635214 0.10000000)
    (4.00000000 -0.01140628 0.10000000)
    (4.00000000 0.48859372 0.10000000)
    (-1.00000000 0.71635214 0.10000000)
);

blocks
(
    hex (0 1 2 3 4 5 6 7) (200 20 1) simpleGrading (1 1 1)
);

edges
(
	polyLine 0 1
	(
		(-1.00000000 0.21635214 0.00000000)
		(-0.98000000 0.21635214 0.00000000)
		(-0.96000000 0.21635214 0.00000000)
		(-0.94000000 0.21635214 0.00000000)
		(-0.92000000 0.21635214 0.00000000)
		(-0.90000000 0.21635214 0.00000000)
		(-0.88000000 0.21635214 0.00000000)
		(-0.86000000 0.21635214 0.00000000)
		(-0.84000000 0.21635214 0.00000000)
		(-0.82000000 0.21635214 0.00000000)
		(-0.80000000 0.21635214 0.00000000)
		(-0.78000000 0.21635214 0.00000000)
		(-0.76000000 0.21635214 0.00000000)
		(-0.74000000 0.21635214 0.00000000)
		(-0.72000000 0.21635214 0.00000000)
		(-0.70000000 0.21635214 0.00000000)
		(-0.68000000 0.21635214 0.00000000)
		(-0.66000000 0.21635214 0.00000000)
		(-0.64000000 0.21635214 0.00000000)
		(-0.62000000 0.21635214 0.00000000)
		(-0.60000000 0.21635214 0.00000000)
		(-0.58000000 0.21635214 0.00000000)
		(-0.56000000 0.21635214 0.00000000)
		(-0.54000000 0.21635214 0.00000000)
		(-0.52000000 0.21635214 0.00000000)
		(-0.50000000 0.21635214 0.00000000)
		(-0.48000000 0.21635214 0.00000000)
		(-0.46000000 0.21635214 0.00000000)
		(-0.44000000 0.21635214 0.00000000)
		(-0.42000000 0.21635214 0.00000000)
		(-0.40000000 0.21635214 0.00000000)
		(-0.38000000 0.21635214 0.00000000)
		(-0.36000000 0.21635214 0.00000000)
		(-0.34000000 0.21635214 0.00000000)
		(-0.32000000 0.21635214 0.00000000)
		(-0.30000000 0.21635214 0.00000000)
		(-0.28000000 0.21635214 0.00000000)
		(-0.26000000 0.21635214 0.00000000)
		(-0.24000000 0.21635214 0.00000000)
		(-0.22000000 0.21635214 0.00000000)
		(-0.20000000 0.21635214 0.00000000)
		(-0.18000000 0.21635214 0.00000000)
		(-0.16000000 0.21635214 0.00000000)
		(-0.14000000 0.21635214 0.00000000)
		(-0.12000000 0.21635214 0.00000000)
		(-0.10000000 0.21635214 0.00000000)
		(-0.08162011 0.21590140 0.00000000)
		(-0.06324022 0.21454920 0.00000000)
		(-0.04486034 0.21229553 0.00000000)
		(-0.02648045 0.20914038 0.00000000)
		(-0.00810056 0.20508377 0.00000000)
		(0.01027933 0.20012569 0.00000000)
		(0.02865922 0.19426614 0.00000000)
		(0.04703911 0.18750513 0.00000000)
		(0.06541899 0.17984264 0.00000000)
		(0.08379888 0.17127868 0.00000000)
		(0.10055866 0.16038811 0.00000000)
		(0.11731844 0.14895366 0.00000000)
		(0.13407821 0.13701410 0.00000000)
		(0.15083799 0.12460992 0.00000000)
		(0.16759777 0.11178318 0.00000000)
		(0.18435754 0.09857739 0.00000000)
		(0.20111732 0.08503732 0.00000000)
		(0.21787709 0.07120888 0.00000000)
		(0.23463687 0.05713897 0.00000000)
		(0.25139665 0.04287530 0.00000000)
		(0.26815642 0.02846624 0.00000000)
		(0.28491620 0.01396065 0.00000000)
		(0.30167598 -0.00059228 0.00000000)
		(0.31843575 -0.01514321 0.00000000)
		(0.33519553 -0.02964278 0.00000000)
		(0.35195531 -0.04404183 0.00000000)
		(0.36871508 -0.05829154 0.00000000)
		(0.38547486 -0.07234358 0.00000000)
		(0.40223464 -0.08615029 0.00000000)
		(0.41899441 -0.09966487 0.00000000)
		(0.43575419 -0.11284149 0.00000000)
		(0.45251397 -0.12563545 0.00000000)
		(0.46927374 -0.13800338 0.00000000)
		(0.48603352 -0.14990334 0.00000000)
		(0.50279330 -0.16129497 0.00000000)
		(0.51955307 -0.17213964 0.00000000)
		(0.53631285 -0.18240058 0.00000000)
		(0.55307263 -0.19204300 0.00000000)
		(0.56983240 -0.20103419 0.00000000)
		(0.58659218 -0.20934367 0.00000000)
		(0.60335196 -0.21694325 0.00000000)
		(0.62011173 -0.22380718 0.00000000)
		(0.63687151 -0.22991217 0.00000000)
		(0.65363128 -0.23523752 0.00000000)
		(0.67039106 -0.23976517 0.00000000)
		(0.68715084 -0.24347977 0.00000000)
		(0.70391061 -0.24636873 0.00000000)
		(0.72067039 -0.24842224 0.00000000)
		(0.73743017 -0.24963334 0.00000000)
		(0.75418994 -0.24999793 0.00000000)
		(0.77094972 -0.24951476 0.00000000)
		(0.78770950 -0.24818549 0.00000000)
		(0.80446927 -0.24601460 0.00000000)
		(0.82122905 -0.24300948 0.00000000)
		(0.83798883 -0.23918030 0.00000000)
		(0.85474860 -0.23454006 0.00000000)
		(0.87150838 -0.22910448 0.00000000)
		(0.88826816 -0.22289200 0.00000000)
		(0.90502793 -0.21592369 0.00000000)
		(0.92178771 -0.20822318 0.00000000)
		(0.93854749 -0.19981657 0.00000000)
		(0.95530726 -0.19073238 0.00000000)
		(0.97206704 -0.18100141 0.00000000)
		(0.98882682 -0.17065665 0.00000000)
		(1.00558659 -0.15973320 0.00000000)
		(1.02234637 -0.14826808 0.00000000)
		(1.03910615 -0.13630019 0.00000000)
		(1.05586592 -0.12387009 0.00000000)
		(1.07262570 -0.11101995 0.00000000)
		(1.08938547 -0.09779334 0.00000000)
		(1.10614525 -0.08423510 0.00000000)
		(1.12290503 -0.07039122 0.00000000)
		(1.13966480 -0.05630865 0.00000000)
		(1.15642458 -0.04203513 0.00000000)
		(1.17318436 -0.02761906 0.00000000)
		(1.18994413 -0.01310934 0.00000000)
		(1.20670391 0.00144483 0.00000000)
		(1.22346369 0.01599411 0.00000000)
		(1.24022346 0.03048915 0.00000000)
		(1.25698324 0.04488080 0.00000000)
		(1.27374302 0.05912026 0.00000000)
		(1.29050279 0.07315924 0.00000000)
		(1.30726257 0.08695013 0.00000000)
		(1.32402235 0.10044617 0.00000000)
		(1.34078212 0.11360160 0.00000000)
		(1.35754190 0.12637180 0.00000000)
		(1.37430168 0.13871347 0.00000000)
		(1.39106145 0.15058476 0.00000000)
		(1.40782123 0.16194541 0.00000000)
		(1.42458101 0.17275689 0.00000000)
		(1.44134078 0.18298256 0.00000000)
		(1.45810056 0.19258772 0.00000000)
		(1.47486034 0.20153982 0.00000000)
		(1.49162011 0.20980848 0.00000000)
		(1.50837989 0.21736568 0.00000000)
		(1.52513966 0.22418578 0.00000000)
		(1.54189944 0.23024567 0.00000000)
		(1.55865922 0.23552478 0.00000000)
		(1.57541899 0.24000522 0.00000000)
		(1.59217877 0.24367180 0.00000000)
		(1.60893855 0.24651208 0.00000000)
		(1.62569832 0.24851642 0.00000000)
		(1.64245810 0.24967804 0.00000000)
		(1.65921788 0.24999300 0.00000000)
		(1.67597765 0.24946022 0.00000000)
		(1.69273743 0.24808151 0.00000000)
		(1.70949721 0.24586155 0.00000000)
		(1.72625698 0.24280787 0.00000000)
		(1.74301676 0.23893081 0.00000000)
		(1.75977654 0.23424354 0.00000000)
		(1.77653631 0.22876194 0.00000000)
		(1.79329609 0.22250460 0.00000000)
		(1.81005587 0.21549273 0.00000000)
		(1.82681564 0.20775013 0.00000000)
		(1.84357542 0.19930304 0.00000000)
		(1.86033520 0.19018011 0.00000000)
		(1.87709497 0.18041227 0.00000000)
		(1.89385475 0.17003264 0.00000000)
		(1.91061453 0.15907643 0.00000000)
		(1.92737430 0.14758079 0.00000000)
		(1.94413408 0.13558469 0.00000000)
		(1.96089385 0.12312883 0.00000000)
		(1.97765363 0.11025543 0.00000000)
		(1.99441341 0.09700815 0.00000000)
		(2.01117318 0.08343191 0.00000000)
		(2.02793296 0.06957275 0.00000000)
		(2.04469274 0.05547767 0.00000000)
		(2.06145251 0.04119446 0.00000000)
		(2.07821229 0.02677156 0.00000000)
		(2.09497207 0.01225788 0.00000000)
		(2.11173184 -0.00229737 0.00000000)
		(2.12849162 -0.01684483 0.00000000)
		(2.14525140 -0.03133516 0.00000000)
		(2.16201117 -0.04571924 0.00000000)
		(2.17877095 -0.05994829 0.00000000)
		(2.19553073 -0.07397404 0.00000000)
		(2.21229050 -0.08774895 0.00000000)
		(2.22905028 -0.10122630 0.00000000)
		(2.24581006 -0.11436039 0.00000000)
		(2.26256983 -0.12710668 0.00000000)
		(2.27932961 -0.13942194 0.00000000)
		(2.29608939 -0.15126442 0.00000000)
		(2.31284916 -0.16259396 0.00000000)
		(2.32960894 -0.17337214 0.00000000)
		(2.34636872 -0.18356241 0.00000000)
		(2.36312849 -0.19313021 0.00000000)
		(2.37988827 -0.20204310 0.00000000)
		(2.39664804 -0.21027086 0.00000000)
		(2.41340782 -0.21778558 0.00000000)
		(2.43016760 -0.22456178 0.00000000)
		(2.44692737 -0.23057649 0.00000000)
		(2.46368715 -0.23580930 0.00000000)
		(2.48044693 -0.24024248 0.00000000)
		(2.49720670 -0.24386099 0.00000000)
		(2.51396648 -0.24665256 0.00000000)
		(2.53072626 -0.24860772 0.00000000)
		(2.54748603 -0.24971985 0.00000000)
		(2.56424581 -0.24998516 0.00000000)
		(2.58100559 -0.24940277 0.00000000)
		(2.59776536 -0.24797465 0.00000000)
		(2.61452514 -0.24570564 0.00000000)
		(2.63128492 -0.24260343 0.00000000)
		(2.64804469 -0.23867855 0.00000000)
		(2.66480447 -0.23394430 0.00000000)
		(2.68156425 -0.22841673 0.00000000)
		(2.69832402 -0.22211460 0.00000000)
		(2.71508380 -0.21505927 0.00000000)
		(2.73184358 -0.20727467 0.00000000)
		(2.74860335 -0.19878719 0.00000000)
		(2.76536313 -0.18962562 0.00000000)
		(2.78212291 -0.17982103 0.00000000)
		(2.79888268 -0.16940665 0.00000000)
		(2.81564246 -0.15841781 0.00000000)
		(2.83240223 -0.14689178 0.00000000)
		(2.84916201 -0.13486762 0.00000000)
		(2.86592179 -0.12238613 0.00000000)
		(2.88268156 -0.10948962 0.00000000)
		(2.89944134 -0.09622183 0.00000000)
		(2.91620112 -0.08262775 0.00000000)
		(2.93296089 -0.06875347 0.00000000)
		(2.95166480 -0.05785751 0.00000000)
		(2.97036872 -0.04810848 0.00000000)
		(2.98907263 -0.03950640 0.00000000)
		(3.00777654 -0.03205127 0.00000000)
		(3.02648045 -0.02574308 0.00000000)
		(3.04518436 -0.02058183 0.00000000)
		(3.06388827 -0.01656753 0.00000000)
		(3.08259218 -0.01370017 0.00000000)
		(3.10129609 -0.01197975 0.00000000)
		(3.12000000 -0.01140628 0.00000000)
		(3.14000000 -0.01140628 0.00000000)
		(3.16000000 -0.01140628 0.00000000)
		(3.18000000 -0.01140628 0.00000000)
		(3.20000000 -0.01140628 0.00000000)
		(3.22000000 -0.01140628 0.00000000)
		(3.24000000 -0.01140628 0.00000000)
		(3.26000000 -0.01140628 0.00000000)
		(3.28000000 -0.01140628 0.00000000)
		(3.30000000 -0.01140628 0.00000000)
		(3.32000000 -0.01140628 0.00000000)
		(3.34000000 -0.01140628 0.00000000)
		(3.36000000 -0.01140628 0.00000000)
		(3.38000000 -0.01140628 0.00000000)
		(3.40000000 -0.01140628 0.00000000)
		(3.42000000 -0.01140628 0.00000000)
		(3.44000000 -0.01140628 0.00000000)
		(3.46000000 -0.01140628 0.00000000)
		(3.48000000 -0.01140628 0.00000000)
		(3.50000000 -0.01140628 0.00000000)
		(3.52000000 -0.01140628 0.00000000)
		(3.54000000 -0.01140628 0.00000000)
		(3.56000000 -0.01140628 0.00000000)
		(3.58000000 -0.01140628 0.00000000)
		(3.60000000 -0.01140628 0.00000000)
		(3.62000000 -0.01140628 0.00000000)
		(3.64000000 -0.01140628 0.00000000)
		(3.66000000 -0.01140628 0.00000000)
		(3.68000000 -0.01140628 0.00000000)
		(3.70000000 -0.01140628 0.00000000)
		(3.72000000 -0.01140628 0.00000000)
		(3.74000000 -0.01140628 0.00000000)
		(3.76000000 -0.01140628 0.00000000)
		(3.78000000 -0.01140628 0.00000000)
		(3.80000000 -0.01140628 0.00000000)
		(3.82000000 -0.01140628 0.00000000)
		(3.84000000 -0.01140628 0.00000000)
		(3.86000000 -0.01140628 0.00000000)
		(3.88000000 -0.01140628 0.00000000)
		(3.90000000 -0.01140628 0.00000000)
		(3.92000000 -0.01140628 0.00000000)
		(3.94000000 -0.01140628 0.00000000)
		(3.96000000 -0.01140628 0.00000000)
		(3.98000000 -0.01140628 0.00000000)
		(4.00000000 -0.01140628 0.00000000)
	)
	polyLine 4 5
	(
		(-1.00000000 0.21635214 0.10000000)
		(-0.98000000 0.21635214 0.10000000)
		(-0.96000000 0.21635214 0.10000000)
		(-0.94000000 0.21635214 0.10000000)
		(-0.92000000 0.21635214 0.10000000)
		(-0.90000000 0.21635214 0.10000000)
		(-0.88000000 0.21635214 0.10000000)
		(-0.86000000 0.21635214 0.10000000)
		(-0.84000000 0.21635214 0.10000000)
		(-0.82000000 0.21635214 0.10000000)
		(-0.80000000 0.21635214 0.10000000)
		(-0.78000000 0.21635214 0.10000000)
		(-0.76000000 0.21635214 0.10000000)
		(-0.74000000 0.21635214 0.10000000)
		(-0.72000000 0.21635214 0.10000000)
		(-0.70000000 0.21635214 0.10000000)
		(-0.68000000 0.21635214 0.10000000)
		(-0.66000000 0.21635214 0.10000000)
		(-0.64000000 0.21635214 0.10000000)
		(-0.62000000 0.21635214 0.10000000)
		(-0.60000000 0.21635214 0.10000000)
		(-0.58000000 0.21635214 0.10000000)
		(-0.56000000 0.21635214 0.10000000)
		(-0.54000000 0.21635214 0.10000000)
		(-0.52000000 0.21635214 0.10000000)
		(-0.50000000 0.21635214 0.10000000)
		(-0.48000000 0.21635214 0.10000000)
		(-0.46000000 0.21635214 0.10000000)
		(-0.44000000 0.21635214 0.10000000)
		(-0.42000000 0.21635214 0.10000000)
		(-0.40000000 0.21635214 0.10000000)
		(-0.38000000 0.21635214 0.10000000)
		(-0.36000000 0.21635214 0.10000000)
		(-0.34000000 0.21635214 0.10000000)
		(-0.32000000 0.21635214 0.10000000)
		(-0.30000000 0.21635214 0.10000000)
		(-0.28000000 0.21635214 0.10000000)
		(-0.26000000 0.21635214 0.10000000)
		(-0.24000000 0.21635214 0.10000000)
		(-0.22000000 0.21635214 0.10000000)
		(-0.20000000 0.21635214 0.10000000)
		(-0.18000000 0.21635214 0.10000000)
		(-0.16000000 0.21635214 0.10000000)
		(-0.14000000 0.21635214 0.10000000)
		(-0.12000000 0.21635214 0.10000000)
		(-0.10000000 0.21635214 0.10000000)
		(-0.08162011 0.21590140 0.10000000)
		(-0.06324022 0.21454920 0.10000000)
		(-0.04486034 0.21229553 0.10000000)
		(-0.02648045 0.20914038 0.10000000)
		(-0.00810056 0.20508377 0.10000000)
		(0.01027933 0.20012569 0.10000000)
		(0.02865922 0.19426614 0.10000000)
		(0.04703911 0.18750513 0.10000000)
		(0.06541899 0.17984264 0.10000000)
		(0.08379888 0.17127868 0.10000000)
		(0.10055866 0.16038811 0.10000000)
		(0.11731844 0.14895366 0.10000000)
		(0.13407821 0.13701410 0.10000000)
		(0.15083799 0.12460992 0.10000000)
		(0.16759777 0.11178318 0.10000000)
		(0.18435754 0.09857739 0.10000000)
		(0.20111732 0.08503732 0.10000000)
		(0.21787709 0.07120888 0.10000000)
		(0.23463687 0.05713897 0.10000000)
		(0.25139665 0.04287530 0.10000000)
		(0.26815642 0.02846624 0.10000000)
		(0.28491620 0.01396065 0.10000000)
		(0.30167598 -0.00059228 0.10000000)
		(0.31843575 -0.01514321 0.10000000)
		(0.33519553 -0.02964278 0.10000000)
		(0.35195531 -0.04404183 0.10000000)
		(0.36871508 -0.05829154 0.10000000)
		(0.38547486 -0.07234358 0.10000000)
		(0.40223464 -0.08615029 0.10000000)
		(0.41899441 -0.09966487 0.10000000)
		(0.43575419 -0.11284149 0.10000000)
		(0.45251397 -0.12563545 0.10000000)
		(0.46927374 -0.13800338 0.10000000)
		(0.48603352 -0.14990334 0.10000000)
		(0.50279330 -0.16129497 0.10000000)
		(0.51955307 -0.17213964 0.10000000)
		(0.53631285 -0.18240058 0.10000000)
		(0.55307263 -0.19204300 0.10000000)
		(0.56983240 -0.20103419 0.10000000)
		(0.58659218 -0.20934367 0.10000000)
		(0.60335196 -0.21694325 0.10000000)
		(0.62011173 -0.22380718 0.10000000)
		(0.63687151 -0.22991217 0.10000000)
		(0.65363128 -0.23523752 0.10000000)
		(0.67039106 -0.23976517 0.10000000)
		(0.68715084 -0.24347977 0.10000000)
		(0.70391061 -0.24636873 0.10000000)
		(0.72067039 -0.24842224 0.10000000)
		(0.73743017 -0.24963334 0.10000000)
		(0.75418994 -0.24999793 0.10000000)
		(0.77094972 -0.24951476 0.10000000)
		(0.78770950 -0.24818549 0.10000000)
		(0.80446927 -0.24601460 0.10000000)
		(0.82122905 -0.24300948 0.10000000)
		(0.83798883 -0.23918030 0.10000000)
		(0.85474860 -0.23454006 0.10000000)
		(0.87150838 -0.22910448 0.10000000)
		(0.88826816 -0.22289200 0.10000000)
		(0.90502793 -0.21592369 0.10000000)
		(0.92178771 -0.20822318 0.10000000)
		(0.93854749 -0.19981657 0.10000000)
		(0.95530726 -0.19073238 0.10000000)
		(0.97206704 -0.18100141 0.10000000)
		(0.98882682 -0.17065665 0.10000000)
		(1.00558659 -0.15973320 0.10000000)
		(1.02234637 -0.14826808 0.10000000)
		(1.03910615 -0.13630019 0.10000000)
		(1.05586592 -0.12387009 0.10000000)
		(1.07262570 -0.11101995 0.10000000)
		(1.08938547 -0.09779334 0.10000000)
		(1.10614525 -0.08423510 0.10000000)
		(1.12290503 -0.07039122 0.10000000)
		(1.13966480 -0.05630865 0.10000000)
		(1.15642458 -0.04203513 0.10000000)
		(1.17318436 -0.02761906 0.10000000)
		(1.18994413 -0.01310934 0.10000000)
		(1.20670391 0.00144483 0.10000000)
		(1.22346369 0.01599411 0.10000000)
		(1.24022346 0.03048915 0.10000000)
		(1.25698324 0.04488080 0.10000000)
		(1.27374302 0.05912026 0.10000000)
		(1.29050279 0.07315924 0.10000000)
		(1.30726257 0.08695013 0.10000000)
		(1.32402235 0.10044617 0.10000000)
		(1.34078212 0.11360160 0.10000000)
		(1.35754190 0.12637180 0.10000000)
		(1.37430168 0.13871347 0.10000000)
		(1.39106145 0.15058476 0.10000000)
		(1.40782123 0.16194541 0.10000000)
		(1.42458101 0.17275689 0.10000000)
		(1.44134078 0.18298256 0.10000000)
		(1.45810056 0.19258772 0.10000000)
		(1.47486034 0.20153982 0.10000000)
		(1.49162011 0.20980848 0.10000000)
		(1.50837989 0.21736568 0.10000000)
		(1.52513966 0.22418578 0.10000000)
		(1.54189944 0.23024567 0.10000000)
		(1.55865922 0.23552478 0.10000000)
		(1.57541899 0.24000522 0.10000000)
		(1.59217877 0.24367180 0.10000000)
		(1.60893855 0.24651208 0.10000000)
		(1.62569832 0.24851642 0.10000000)
		(1.64245810 0.24967804 0.10000000)
		(1.65921788 0.24999300 0.10000000)
		(1.67597765 0.24946022 0.10000000)
		(1.69273743 0.24808151 0.10000000)
		(1.70949721 0.24586155 0.10000000)
		(1.72625698 0.24280787 0.10000000)
		(1.74301676 0.23893081 0.10000000)
		(1.75977654 0.23424354 0.10000000)
		(1.77653631 0.22876194 0.10000000)
		(1.79329609 0.22250460 0.10000000)
		(1.81005587 0.21549273 0.10000000)
		(1.82681564 0.20775013 0.10000000)
		(1.84357542 0.19930304 0.10000000)
		(1.86033520 0.19018011 0.10000000)
		(1.87709497 0.18041227 0.10000000)
		(1.89385475 0.17003264 0.10000000)
		(1.91061453 0.15907643 0.10000000)
		(1.92737430 0.14758079 0.10000000)
		(1.94413408 0.13558469 0.10000000)
		(1.96089385 0.12312883 0.10000000)
		(1.97765363 0.11025543 0.10000000)
		(1.99441341 0.09700815 0.10000000)
		(2.01117318 0.08343191 0.10000000)
		(2.02793296 0.06957275 0.10000000)
		(2.04469274 0.05547767 0.10000000)
		(2.06145251 0.04119446 0.10000000)
		(2.07821229 0.02677156 0.10000000)
		(2.09497207 0.01225788 0.10000000)
		(2.11173184 -0.00229737 0.10000000)
		(2.12849162 -0.01684483 0.10000000)
		(2.14525140 -0.03133516 0.10000000)
		(2.16201117 -0.04571924 0.10000000)
		(2.17877095 -0.05994829 0.10000000)
		(2.19553073 -0.07397404 0.10000000)
		(2.21229050 -0.08774895 0.10000000)
		(2.22905028 -0.10122630 0.10000000)
		(2.24581006 -0.11436039 0.10000000)
		(2.26256983 -0.12710668 0.10000000)
		(2.27932961 -0.13942194 0.10000000)
		(2.29608939 -0.15126442 0.10000000)
		(2.31284916 -0.16259396 0.10000000)
		(2.32960894 -0.17337214 0.10000000)
		(2.34636872 -0.18356241 0.10000000)
		(2.36312849 -0.19313021 0.10000000)
		(2.37988827 -0.20204310 0.10000000)
		(2.39664804 -0.21027086 0.10000000)
		(2.41340782 -0.21778558 0.10000000)
		(2.43016760 -0.22456178 0.10000000)
		(2.44692737 -0.23057649 0.10000000)
		(2.46368715 -0.23580930 0.10000000)
		(2.48044693 -0.24024248 0.10000000)
		(2.49720670 -0.24386099 0.10000000)
		(2.51396648 -0.24665256 0.10000000)
		(2.53072626 -0.24860772 0.10000000)
		(2.54748603 -0.24971985 0.10000000)
		(2.56424581 -0.24998516 0.10000000)
		(2.58100559 -0.24940277 0.10000000)
		(2.59776536 -0.24797465 0.10000000)
		(2.61452514 -0.24570564 0.10000000)
		(2.63128492 -0.24260343 0.10000000)
		(2.64804469 -0.23867855 0.10000000)
		(2.66480447 -0.23394430 0.10000000)
		(2.68156425 -0.22841673 0.10000000)
		(2.69832402 -0.22211460 0.10000000)
		(2.71508380 -0.21505927 0.10000000)
		(2.73184358 -0.20727467 0.10000000)
		(2.74860335 -0.19878719 0.10000000)
		(2.76536313 -0.18962562 0.10000000)
		(2.78212291 -0.17982103 0.10000000)
		(2.79888268 -0.16940665 0.10000000)
		(2.81564246 -0.15841781 0.10000000)
		(2.83240223 -0.14689178 0.10000000)
		(2.84916201 -0.13486762 0.10000000)
		(2.86592179 -0.12238613 0.10000000)
		(2.88268156 -0.10948962 0.10000000)
		(2.89944134 -0.09622183 0.10000000)
		(2.91620112 -0.08262775 0.10000000)
		(2.93296089 -0.06875347 0.10000000)
		(2.95166480 -0.05785751 0.10000000)
		(2.97036872 -0.04810848 0.10000000)
		(2.98907263 -0.03950640 0.10000000)
		(3.00777654 -0.03205127 0.10000000)
		(3.02648045 -0.02574308 0.10000000)
		(3.04518436 -0.02058183 0.10000000)
		(3.06388827 -0.01656753 0.10000000)
		(3.08259218 -0.01370017 0.10000000)
		(3.10129609 -0.01197975 0.10000000)
		(3.12000000 -0.01140628 0.10000000)
		(3.14000000 -0.01140628 0.10000000)
		(3.16000000 -0.01140628 0.10000000)
		(3.18000000 -0.01140628 0.10000000)
		(3.20000000 -0.01140628 0.10000000)
		(3.22000000 -0.01140628 0.10000000)
		(3.24000000 -0.01140628 0.10000000)
		(3.26000000 -0.01140628 0.10000000)
		(3.28000000 -0.01140628 0.10000000)
		(3.30000000 -0.01140628 0.10000000)
		(3.32000000 -0.01140628 0.10000000)
		(3.34000000 -0.01140628 0.10000000)
		(3.36000000 -0.01140628 0.10000000)
		(3.38000000 -0.01140628 0.10000000)
		(3.40000000 -0.01140628 0.10000000)
		(3.42000000 -0.01140628 0.10000000)
		(3.44000000 -0.01140628 0.10000000)
		(3.46000000 -0.01140628 0.10000000)
		(3.48000000 -0.01140628 0.10000000)
		(3.50000000 -0.01140628 0.10000000)
		(3.52000000 -0.01140628 0.10000000)
		(3.54000000 -0.01140628 0.10000000)
		(3.56000000 -0.01140628 0.10000000)
		(3.58000000 -0.01140628 0.10000000)
		(3.60000000 -0.01140628 0.10000000)
		(3.62000000 -0.01140628 0.10000000)
		(3.64000000 -0.01140628 0.10000000)
		(3.66000000 -0.01140628 0.10000000)
		(3.68000000 -0.01140628 0.10000000)
		(3.70000000 -0.01140628 0.10000000)
		(3.72000000 -0.01140628 0.10000000)
		(3.74000000 -0.01140628 0.10000000)
		(3.76000000 -0.01140628 0.10000000)
		(3.78000000 -0.01140628 0.10000000)
		(3.80000000 -0.01140628 0.10000000)
		(3.82000000 -0.01140628 0.10000000)
		(3.84000000 -0.01140628 0.10000000)
		(3.86000000 -0.01140628 0.10000000)
		(3.88000000 -0.01140628 0.10000000)
		(3.90000000 -0.01140628 0.10000000)
		(3.92000000 -0.01140628 0.10000000)
		(3.94000000 -0.01140628 0.10000000)
		(3.96000000 -0.01140628 0.10000000)
		(3.98000000 -0.01140628 0.10000000)
		(4.00000000 -0.01140628 0.10000000)
	)
	polyLine 3 2
	(
		(-1.00000000 0.71635214 0.00000000)
		(-0.98000000 0.71950145 0.00000000)
		(-0.96000000 0.72265076 0.00000000)
		(-0.94000000 0.72580007 0.00000000)
		(-0.92000000 0.72894939 0.00000000)
		(-0.90000000 0.73209870 0.00000000)
		(-0.88000000 0.73524801 0.00000000)
		(-0.86000000 0.73839732 0.00000000)
		(-0.84000000 0.74154663 0.00000000)
		(-0.82000000 0.74469595 0.00000000)
		(-0.80000000 0.74784526 0.00000000)
		(-0.78000000 0.75099457 0.00000000)
		(-0.76000000 0.75414388 0.00000000)
		(-0.74000000 0.75729319 0.00000000)
		(-0.72000000 0.76044251 0.00000000)
		(-0.70000000 0.76359182 0.00000000)
		(-0.68000000 0.76674113 0.00000000)
		(-0.66000000 0.76989044 0.00000000)
		(-0.64000000 0.77303975 0.00000000)
		(-0.62000000 0.77618907 0.00000000)
		(-0.60000000 0.77933838 0.00000000)
		(-0.58000000 0.78248769 0.00000000)
		(-0.56000000 0.78563700 0.00000000)
		(-0.54000000 0.78878631 0.00000000)
		(-0.52000000 0.79193563 0.00000000)
		(-0.50000000 0.79508494 0.00000000)
		(-0.48000000 0.79823425 0.00000000)
		(-0.46000000 0.80138356 0.00000000)
		(-0.44000000 0.80453288 0.00000000)
		(-0.42000000 0.80768219 0.00000000)
		(-0.40000000 0.81083150 0.00000000)
		(-0.38000000 0.81398081 0.00000000)
		(-0.36000000 0.81713012 0.00000000)
		(-0.34000000 0.82027944 0.00000000)
		(-0.32000000 0.82342875 0.00000000)
		(-0.30000000 0.82657806 0.00000000)
		(-0.28000000 0.82972737 0.00000000)
		(-0.26000000 0.83287668 0.00000000)
		(-0.24000000 0.83602600 0.00000000)
		(-0.22000000 0.83917531 0.00000000)
		(-0.20000000 0.84232462 0.00000000)
		(-0.18000000 0.84547393 0.00000000)
		(-0.16000000 0.84862324 0.00000000)
		(-0.14000000 0.85177256 0.00000000)
		(-0.12000000 0.85492187 0.00000000)
		(-0.10000000 0.85807118 0.00000000)
		(-0.08162011 0.86078913 0.00000000)
		(-0.06324022 0.86146696 0.00000000)
		(-0.04486034 0.86010468 0.00000000)
		(-0.02648045 0.85670230 0.00000000)
		(-0.00810056 0.85125980 0.00000000)
		(0.01027933 0.84377720 0.00000000)
		(0.02865922 0.83425448 0.00000000)
		(0.04703911 0.82269166 0.00000000)
		(0.06541899 0.80908872 0.00000000)
		(0.08379888 0.79344568 0.00000000)
		(0.10055866 0.77478725 0.00000000)
		(0.11731844 0.75519701 0.00000000)
		(0.13407821 0.73474139 0.00000000)
		(0.15083799 0.71348975 0.00000000)
		(0.16759777 0.69151416 0.00000000)
		(0.18435754 0.66888914 0.00000000)
		(0.20111732 0.64569141 0.00000000)
		(0.21787709 0.62199964 0.00000000)
		(0.23463687 0.59789417 0.00000000)
		(0.25139665 0.57345673 0.00000000)
		(0.26815642 0.54877019 0.00000000)
		(0.28491620 0.52391828 0.00000000)
		(0.30167598 0.49898526 0.00000000)
		(0.31843575 0.47405568 0.00000000)
		(0.33519553 0.44921408 0.00000000)
		(0.35195531 0.42454469 0.00000000)
		(0.36871508 0.40013118 0.00000000)
		(0.38547486 0.37605632 0.00000000)
		(0.40223464 0.35240176 0.00000000)
		(0.41899441 0.32924771 0.00000000)
		(0.43575419 0.30667269 0.00000000)
		(0.45251397 0.28475325 0.00000000)
		(0.46927374 0.26356371 0.00000000)
		(0.48603352 0.24317594 0.00000000)
		(0.50279330 0.22365907 0.00000000)
		(0.51955307 0.20507927 0.00000000)
		(0.53631285 0.18749957 0.00000000)
		(0.55307263 0.17097956 0.00000000)
		(0.56983240 0.15557527 0.00000000)
		(0.58659218 0.14133893 0.00000000)
		(0.60335196 0.12831883 0.00000000)
		(0.62011173 0.11655911 0.00000000)
		(0.63687151 0.10609965 0.00000000)
		(0.65363128 0.09697591 0.00000000)
		(0.67039106 0.08921885 0.00000000)
		(0.68715084 0.08285475 0.00000000)
		(0.70391061 0.07790521 0.00000000)
		(0.72067039 0.07438701 0.00000000)
		(0.73743017 0.07231207 0.00000000)
		(0.75418994 0.07168744 0.00000000)
		(0.77094972 0.07251522 0.00000000)
		(0.78770950 0.07479263 0.00000000)
		(0.80446927 0.07851192 0.00000000)
		(0.82122905 0.08366049 0.00000000)
		(0.83798883 0.09022088 0.00000000)
		(0.85474860 0.09817085 0.00000000)
		(0.87150838 0.10748343 0.00000000)
		(0.88826816 0.11812705 0.00000000)
		(0.90502793 0.13006561 0.00000000)
		(0.92178771 0.14325863 0.00000000)
		(0.93854749 0.15766137 0.00000000)
		(0.95530726 0.17322499 0.00000000)
		(0.97206704 0.18989672 0.00000000)
		(0.98882682 0.20762002 0.00000000)
		(1.00558659 0.22633478 0.00000000)
		(1.02234637 0.24597756 0.00000000)
		(1.03910615 0.26648173 0.00000000)
		(1.05586592 0.28777777 0.00000000)
		(1.07262570 0.30979346 0.00000000)
		(1.08938547 0.33245415 0.00000000)
		(1.10614525 0.35568299 0.00000000)
		(1.12290503 0.37940122 0.00000000)
		(1.13966480 0.40352839 0.00000000)
		(1.15642458 0.42798271 0.00000000)
		(1.17318436 0.45268124 0.00000000)
		(1.18994413 0.47754023 0.00000000)
		(1.20670391 0.50247538 0.00000000)
		(1.22346369 0.52740214 0.00000000)
		(1.24022346 0.55223598 0.00000000)
		(1.25698324 0.57689268 0.00000000)
		(1.27374302 0.60128863 0.00000000)
		(1.29050279 0.62534112 0.00000000)
		(1.30726257 0.64896857 0.00000000)
		(1.32402235 0.67209086 0.00000000)
		(1.34078212 0.69462958 0.00000000)
		(1.35754190 0.71650831 0.00000000)
		(1.37430168 0.73765286 0.00000000)
		(1.39106145 0.75799151 0.00000000)
		(1.40782123 0.77745531 0.00000000)
		(1.42458101 0.79597825 0.00000000)
		(1.44134078 0.81349752 0.00000000)
		(1.45810056 0.82995370 0.00000000)
		(1.47486034 0.84529101 0.00000000)
		(1.49162011 0.85945742 0.00000000)
		(1.50837989 0.87240490 0.00000000)
		(1.52513966 0.88408954 0.00000000)
		(1.54189944 0.89447172 0.00000000)
		(1.55865922 0.90351624 0.00000000)
		(1.57541899 0.91119242 0.00000000)
		(1.59217877 0.91747424 0.00000000)
		(1.60893855 0.92234038 0.00000000)
		(1.62569832 0.92577436 0.00000000)
		(1.64245810 0.92776452 0.00000000)
		(1.65921788 0.92830412 0.00000000)
		(1.67597765 0.92739133 0.00000000)
		(1.69273743 0.92502924 0.00000000)
		(1.70949721 0.92122586 0.00000000)
		(1.72625698 0.91599409 0.00000000)
		(1.74301676 0.90935167 0.00000000)
		(1.75977654 0.90132113 0.00000000)
		(1.77653631 0.89192970 0.00000000)
		(1.79329609 0.88120922 0.00000000)
		(1.81005587 0.86919605 0.00000000)
		(1.82681564 0.85593092 0.00000000)
		(1.84357542 0.84145882 0.00000000)
		(1.86033520 0.82582882 0.00000000)
		(1.87709497 0.80909393 0.00000000)
		(1.89385475 0.79131088 0.00000000)
		(1.91061453 0.77254000 0.00000000)
		(1.92737430 0.75284492 0.00000000)
		(1.94413408 0.73229244 0.00000000)
		(1.96089385 0.71095225 0.00000000)
		(1.97765363 0.68889671 0.00000000)
		(1.99441341 0.66620061 0.00000000)
		(2.01117318 0.64294093 0.00000000)
		(2.02793296 0.61919653 0.00000000)
		(2.04469274 0.59504792 0.00000000)
		(2.06145251 0.57057701 0.00000000)
		(2.07821229 0.54586677 0.00000000)
		(2.09497207 0.52100099 0.00000000)
		(2.11173184 0.49606400 0.00000000)
		(2.12849162 0.47114036 0.00000000)
		(2.14525140 0.44631458 0.00000000)
		(2.16201117 0.42167085 0.00000000)
		(2.17877095 0.39729273 0.00000000)
		(2.19553073 0.37326290 0.00000000)
		(2.21229050 0.34966284 0.00000000)
		(2.22905028 0.32657257 0.00000000)
		(2.24581006 0.30407041 0.00000000)
		(2.26256983 0.28223265 0.00000000)
		(2.27932961 0.26113334 0.00000000)
		(2.29608939 0.24084404 0.00000000)
		(2.31284916 0.22143354 0.00000000)
		(2.32960894 0.20296767 0.00000000)
		(2.34636872 0.18550905 0.00000000)
		(2.36312849 0.16911687 0.00000000)
		(2.37988827 0.15384674 0.00000000)
		(2.39664804 0.13975041 0.00000000)
		(2.41340782 0.12687571 0.00000000)
		(2.43016760 0.11526628 0.00000000)
		(2.44692737 0.10496149 0.00000000)
		(2.46368715 0.09599630 0.00000000)
		(2.48044693 0.08840109 0.00000000)
		(2.49720670 0.08220163 0.00000000)