/*--------------------------------*- C++ -*----------------------------------*\\
/*--------------------------------*- C++ -*----------------------------------*\\
| =========                 |                                                 |
| \\\\      /  F ield         | OpenFOAM: The Open Source CFD Toolbox           |
|  \\\\    /   O peration     | Version:  v2012                                 |
|   \\\\  /    A nd           | Website:  www.openfoam.com                      |
|    \\\\/     M anipulation  |                                                 |
\\*---------------------------------------------------------------------------*/
FoamFile
{
    version     2.0;
    format      ascii;
    class       dictionary;
    object      blockMeshDict;
}
// * * * * * * * * * * * * * * * * * * * * * * * * * * * * * * * * * * * * * //

scale   0.01;

xmin -1;
xmax 5;
ymin 0;
ymax 0.5;
zmin 0;
zmax 0.1;

vertices
(
    (-1.00000000 -0.12294948 0.00000000)
    (4.00000000 0.20191360 0.00000000)
    (4.00000000 0.70191360 0.00000000)
    (-1.00000000 0.37705052 0.00000000)
    (-1.00000000 -0.12294948 0.10000000)
    (4.00000000 0.20191360 0.10000000)
    (4.00000000 0.70191360 0.10000000)
    (-1.00000000 0.37705052 0.10000000)
);

blocks
(
    hex (0 1 2 3 4 5 6 7) (200 20 1) simpleGrading (1 1 1)
);

edges
(
	polyLine 0 1
	(
		(-1.00000000 -0.12294948 0.00000000)
		(-0.98000000 -0.12294948 0.00000000)
		(-0.96000000 -0.12294948 0.00000000)
		(-0.94000000 -0.12294948 0.00000000)
		(-0.92000000 -0.12294948 0.00000000)
		(-0.90000000 -0.12294948 0.00000000)
		(-0.88000000 -0.12294948 0.00000000)
		(-0.86000000 -0.12294948 0.00000000)
		(-0.84000000 -0.12294948 0.00000000)
		(-0.82000000 -0.12294948 0.00000000)
		(-0.80000000 -0.12294948 0.00000000)
		(-0.78000000 -0.12294948 0.00000000)
		(-0.76000000 -0.12294948 0.00000000)
		(-0.74000000 -0.12294948 0.00000000)
		(-0.72000000 -0.12294948 0.00000000)
		(-0.70000000 -0.12294948 0.00000000)
		(-0.68000000 -0.12294948 0.00000000)
		(-0.66000000 -0.12294948 0.00000000)
		(-0.64000000 -0.12294948 0.00000000)
		(-0.62000000 -0.12294948 0.00000000)
		(-0.60000000 -0.12294948 0.00000000)
		(-0.58000000 -0.12294948 0.00000000)
		(-0.56000000 -0.12294948 0.00000000)
		(-0.54000000 -0.12294948 0.00000000)
		(-0.52000000 -0.12294948 0.00000000)
		(-0.50000000 -0.12294948 0.00000000)
		(-0.48000000 -0.12294948 0.00000000)
		(-0.46000000 -0.12294948 0.00000000)
		(-0.44000000 -0.12294948 0.00000000)
		(-0.42000000 -0.12294948 0.00000000)
		(-0.40000000 -0.12294948 0.00000000)
		(-0.38000000 -0.12294948 0.00000000)
		(-0.36000000 -0.12294948 0.00000000)
		(-0.34000000 -0.12294948 0.00000000)
		(-0.32000000 -0.12294948 0.00000000)
		(-0.30000000 -0.12294948 0.00000000)
		(-0.28000000 -0.12294948 0.00000000)
		(-0.26000000 -0.12294948 0.00000000)
		(-0.24000000 -0.12294948 0.00000000)
		(-0.22000000 -0.12294948 0.00000000)
		(-0.20000000 -0.12294948 0.00000000)
		(-0.18000000 -0.12294948 0.00000000)
		(-0.16000000 -0.12294948 0.00000000)
		(-0.14000000 -0.12294948 0.00000000)
		(-0.12000000 -0.12294948 0.00000000)
		(-0.10000000 -0.12294948 0.00000000)
		(-0.08162011 -0.12202550 0.00000000)
		(-0.06324022 -0.11925358 0.00000000)
		(-0.04486034 -0.11463370 0.00000000)
		(-0.02648045 -0.10816588 0.00000000)
		(-0.00810056 -0.09985010 0.00000000)
		(0.01027933 -0.08968638 0.00000000)
		(0.02865922 -0.07767470 0.00000000)
		(0.04703911 -0.06381507 0.00000000)
		(0.06541899 -0.04810750 0.00000000)
		(0.08379888 -0.03055197 0.00000000)
		(0.10055866 -0.01104297 0.00000000)
		(0.11731844 0.00853374 0.00000000)
		(0.13407821 0.02805812 0.00000000)
		(0.15083799 0.04741045 0.00000000)
		(0.16759777 0.06647205 0.00000000)
		(0.18435754 0.08512604 0.00000000)
		(0.20111732 0.10325802 0.00000000)
		(0.21787709 0.12075682 0.00000000)
		(0.23463687 0.13751512 0.00000000)
		(0.25139665 0.15343015 0.00000000)
		(0.26815642 0.16840434 0.00000000)
		(0.28491620 0.18234585 0.00000000)
		(0.30167598 0.19516920 0.00000000)
		(0.31843575 0.20679575 0.00000000)
		(0.33519553 0.21715420 0.00000000)
		(0.35195531 0.22618103 0.00000000)
		(0.36871508 0.23382090 0.00000000)
		(0.38547486 0.24002694 0.00000000)
		(0.40223464 0.24476112 0.00000000)
		(0.41899441 0.24799439 0.00000000)
		(0.43575419 0.24970693 0.00000000)
		(0.45251397 0.24988824 0.00000000)
		(0.46927374 0.24853720 0.00000000)
		(0.48603352 0.24566211 0.00000000)
		(0.50279330 0.24128058 0.00000000)
		(0.51955307 0.23541950 0.00000000)
		(0.53631285 0.22811479 0.00000000)
		(0.55307263 0.21941126 0.00000000)
		(0.56983240 0.20936227 0.00000000)
		(0.58659218 0.19802945 0.00000000)
		(0.60335196 0.18548228 0.00000000)
		(0.62011173 0.17179772 0.00000000)
		(0.63687151 0.15705968 0.00000000)
		(0.65363128 0.14135852 0.00000000)
		(0.67039106 0.12479054 0.00000000)
		(0.68715084 0.10745733 0.00000000)
		(0.70391061 0.08946518 0.00000000)
		(0.72067039 0.07092441 0.00000000)
		(0.73743017 0.05194873 0.00000000)
		(0.75418994 0.03265450 0.00000000)
		(0.77094972 0.01316002 0.00000000)
		(0.78770950 -0.00641516 0.00000000)
		(0.80446927 -0.02595099 0.00000000)
		(0.82122905 -0.04532770 0.00000000)
		(0.83798883 -0.06442644 0.00000000)
		(0.85474860 -0.08313012 0.00000000)
		(0.87150838 -0.10132404 0.00000000)
		(0.88826816 -0.11889662 0.00000000)
		(0.90502793 -0.13574011 0.00000000)
		(0.92178771 -0.15175124 0.00000000)
		(0.93854749 -0.16683180 0.00000000)
		(0.95530726 -0.18088933 0.00000000)
		(0.97206704 -0.19383763 0.00000000)
		(0.98882682 -0.20559729 0.00000000)
		(1.00558659 -0.21609621 0.00000000)
		(1.02234637 -0.22526999 0.00000000)
		(1.03910615 -0.23306240 0.00000000)
		(1.05586592 -0.23942564 0.00000000)
		(1.07262570 -0.24432069 0.00000000)
		(1.08938547 -0.24771754 0.00000000)
		(1.10614525 -0.24959536 0.00000000)
		(1.12290503 -0.24994263 0.00000000)
		(1.13966480 -0.24875722 0.00000000)
		(1.15642458 -0.24604640 0.00000000)
		(1.17318436 -0.24182680 0.00000000)
		(1.18994413 -0.23612428 0.00000000)
		(1.20670391 -0.22897383 0.00000000)
		(1.22346369 -0.22041928 0.00000000)
		(1.24022346 -0.21051309 0.00000000)
		(1.25698324 -0.19931601 0.00000000)
		(1.27374302 -0.18689671 0.00000000)
		(1.29050279 -0.17333132 0.00000000)
		(1.30726257 -0.15870306 0.00000000)
		(1.32402235 -0.14310160 0.00000000)
		(1.34078212 -0.12662263 0.00000000)
		(1.35754190 -0.10936720 0.00000000)
		(1.37430168 -0.09144111 0.00000000)
		(1.39106145 -0.07295430 0.00000000)
		(1.40782123 -0.05402012 0.00000000)
		(1.42458101 -0.03475468 0.00000000)
		(1.44134078 -0.01527612 0.00000000)
		(1.45810056 0.00429611 0.00000000)
		(1.47486034 0.02384200 0.00000000)
		(1.49162011 0.04324168 0.00000000)
		(1.50837989 0.06237621 0.00000000)
		(1.52513966 0.08112823 0.00000000)
		(1.54189944 0.09938277 0.00000000)
		(1.55865922 0.11702788 0.00000000)
		(1.57541899 0.13395536 0.00000000)
		(1.59217877 0.15006141 0.00000000)
		(1.60893855 0.16524726 0.00000000)
		(1.62569832 0.17941981 0.00000000)
		(1.64245810 0.19249212 0.00000000)
		(1.65921788 0.20438406 0.00000000)
		(1.67597765 0.21502268 0.00000000)
		(1.69273743 0.22434276 0.00000000)
		(1.70949721 0.23228715 0.00000000)
		(1.72625698 0.23880712 0.00000000)
		(1.74301676 0.24386270 0.00000000)
		(1.75977654 0.24742289 0.00000000)
		(1.77653631 0.24946585 0.00000000)
		(1.79329609 0.24997905 0.00000000)
		(1.81005587 0.24895935 0.00000000)
		(1.82681564 0.24641301 0.00000000)
		(1.84357542 0.24235563 0.00000000)
		(1.86033520 0.23681210 0.00000000)
		(1.87709497 0.22981641 0.00000000)
		(1.89385475 0.22141146 0.00000000)
		(1.91061453 0.21164878 0.00000000)
		(1.92737430 0.20058825 0.00000000)
		(1.94413408 0.18829769 0.00000000)
		(1.96089385 0.17485247 0.00000000)
		(1.97765363 0.16033503 0.00000000)
		(1.99441341 0.14483440 0.00000000)
		(2.01117318 0.12844562 0.00000000)
		(2.02793296 0.11126921 0.00000000)
		(2.04469274 0.09341047 0.00000000)
		(2.06145251 0.07497893 0.00000000)
		(2.07821229 0.05608762 0.00000000)
		(2.09497207 0.03685236 0.00000000)
		(2.11173184 0.01739113 0.00000000)
		(2.12849162 -0.00217676 0.00000000)
		(2.14525140 -0.02173129 0.00000000)
		(2.16201117 -0.04115256 0.00000000)
		(2.17877095 -0.06032148 0.00000000)
		(2.19553073 -0.07912051 0.00000000)
		(2.21229050 -0.09743435 0.00000000)
		(2.22905028 -0.11515072 0.00000000)
		(2.24581006 -0.13216097 0.00000000)
		(2.26256983 -0.14836079 0.00000000)
		(2.27932961 -0.16365085 0.00000000)
		(2.29608939 -0.17793738 0.00000000)
		(2.31284916 -0.19113278 0.00000000)
		(2.32960894 -0.20315613 0.00000000)
		(2.34636872 -0.21393370 0.00000000)
		(2.36312849 -0.22339941 0.00000000)
		(2.37988827 -0.23149520 0.00000000)
		(2.39664804 -0.23817144 0.00000000)
		(2.41340782 -0.24338718 0.00000000)
		(2.43016760 -0.24711045 0.00000000)
		(2.44692737 -0.24931840 0.00000000)
		(2.46368715 -0.24999750 0.00000000)
		(2.48044693 -0.24914359 0.00000000)
		(2.49720670 -0.24676191 0.00000000)
		(2.51396648 -0.24286704 0.00000000)
		(2.53072626 -0.23748289 0.00000000)
		(2.54748603 -0.23064247 0.00000000)
		(2.56424581 -0.22238772 0.00000000)
		(2.58100559 -0.21276926 0.00000000)
		(2.59776536 -0.20184607 0.00000000)
		(2.61452514 -0.18968515 0.00000000)
		(2.63128492 -0.17636105 0.00000000)
		(2.64804469 -0.16195548 0.00000000)
		(2.66480447 -0.14655678 0.00000000)
		(2.68156425 -0.13025938 0.00000000)
		(2.69832402 -0.11316321 0.00000000)
		(2.71508380 -0.09537312 0.00000000)
		(2.73184358 -0.07699818 0.00000000)
		(2.74860335 -0.05815108 0.00000000)
		(2.76536313 -0.03894740 0.00000000)
		(2.78212291 -0.01950488 0.00000000)
		(2.79888268 0.00005724 0.00000000)
		(2.81564246 0.01961902 0.00000000)
		(2.83240223 0.03906048 0.00000000)
		(2.84916201 0.05826243 0.00000000)
		(2.86592179 0.07710710 0.00000000)
		(2.88268156 0.09547894 0.00000000)
		(2.89944134 0.11326529 0.00000000)
		(2.91620112 0.13035709 0.00000000)
		(2.93296089 0.14664952 0.00000000)
		(2.95166480 0.15714969 0.00000000)
		(2.97036872 0.16654459 0.00000000)
		(2.98907263 0.17483420 0.00000000)
		(3.00777654 0.18201853 0.00000000)
		(3.02648045 0.18809758 0.00000000)
		(3.04518436 0.19307135 0.00000000)
		(3.06388827 0.19693984 0.00000000)
		(3.08259218 0.19970304 0.00000000)
		(3.10129609 0.20136096 0.00000000)
		(3.12000000 0.20191360 0.00000000)
		(3.14000000 0.20191360 0.00000000)
		(3.16000000 0.20191360 0.00000000)
		(3.18000000 0.20191360 0.00000000)
		(3.20000000 0.20191360 0.00000000)
		(3.22000000 0.20191360 0.00000000)
		(3.24000000 0.20191360 0.00000000)
		(3.26000000 0.20191360 0.00000000)
		(3.28000000 0.20191360 0.00000000)
		(3.30000000 0.20191360 0.00000000)
		(3.32000000 0.20191360 0.00000000)
		(3.34000000 0.20191360 0.00000000)
		(3.36000000 0.20191360 0.00000000)
		(3.38000000 0.20191360 0.00000000)
		(3.40000000 0.20191360 0.00000000)
		(3.42000000 0.20191360 0.00000000)
		(3.44000000 0.20191360 0.00000000)
		(3.46000000 0.20191360 0.00000000)
		(3.48000000 0.20191360 0.00000000)
		(3.50000000 0.20191360 0.00000000)
		(3.52000000 0.20191360 0.00000000)
		(3.54000000 0.20191360 0.00000000)
		(3.56000000 0.20191360 0.00000000)
		(3.58000000 0.20191360 0.00000000)
		(3.60000000 0.20191360 0.00000000)
		(3.62000000 0.20191360 0.00000000)
		(3.64000000 0.20191360 0.00000000)
		(3.66000000 0.20191360 0.00000000)
		(3.68000000 0.20191360 0.00000000)
		(3.70000000 0.20191360 0.00000000)
		(3.72000000 0.20191360 0.00000000)
		(3.74000000 0.20191360 0.00000000)
		(3.76000000 0.20191360 0.00000000)
		(3.78000000 0.20191360 0.00000000)
		(3.80000000 0.20191360 0.00000000)
		(3.82000000 0.20191360 0.00000000)
		(3.84000000 0.20191360 0.00000000)
		(3.86000000 0.20191360 0.00000000)
		(3.88000000 0.20191360 0.00000000)
		(3.90000000 0.20191360 0.00000000)
		(3.92000000 0.20191360 0.00000000)
		(3.94000000 0.20191360 0.00000000)
		(3.96000000 0.20191360 0.00000000)
		(3.98000000 0.20191360 0.00000000)
		(4.00000000 0.20191360 0.00000000)
	)
	polyLine 4 5
	(
		(-1.00000000 -0.12294948 0.10000000)
		(-0.98000000 -0.12294948 0.10000000)
		(-0.96000000 -0.12294948 0.10000000)
		(-0.94000000 -0.12294948 0.10000000)
		(-0.92000000 -0.12294948 0.10000000)
		(-0.90000000 -0.12294948 0.10000000)
		(-0.88000000 -0.12294948 0.10000000)
		(-0.86000000 -0.12294948 0.10000000)
		(-0.84000000 -0.12294948 0.10000000)
		(-0.82000000 -0.12294948 0.10000000)
		(-0.80000000 -0.12294948 0.10000000)
		(-0.78000000 -0.12294948 0.10000000)
		(-0.76000000 -0.12294948 0.10000000)
		(-0.74000000 -0.12294948 0.10000000)
		(-0.72000000 -0.12294948 0.10000000)
		(-0.70000000 -0.12294948 0.10000000)
		(-0.68000000 -0.12294948 0.10000000)
		(-0.66000000 -0.12294948 0.10000000)
		(-0.64000000 -0.12294948 0.10000000)
		(-0.62000000 -0.12294948 0.10000000)
		(-0.60000000 -0.12294948 0.10000000)
		(-0.58000000 -0.12294948 0.10000000)
		(-0.56000000 -0.12294948 0.10000000)
		(-0.54000000 -0.12294948 0.10000000)
		(-0.52000000 -0.12294948 0.10000000)
		(-0.50000000 -0.12294948 0.10000000)
		(-0.48000000 -0.12294948 0.10000000)
		(-0.46000000 -0.12294948 0.10000000)
		(-0.44000000 -0.12294948 0.10000000)
		(-0.42000000 -0.12294948 0.10000000)
		(-0.40000000 -0.12294948 0.10000000)
		(-0.38000000 -0.12294948 0.10000000)
		(-0.36000000 -0.12294948 0.10000000)
		(-0.34000000 -0.12294948 0.10000000)
		(-0.32000000 -0.12294948 0.10000000)
		(-0.30000000 -0.12294948 0.10000000)
		(-0.28000000 -0.12294948 0.10000000)
		(-0.26000000 -0.12294948 0.10000000)
		(-0.24000000 -0.12294948 0.10000000)
		(-0.22000000 -0.12294948 0.10000000)
		(-0.20000000 -0.12294948 0.10000000)
		(-0.18000000 -0.12294948 0.10000000)
		(-0.16000000 -0.12294948 0.10000000)
		(-0.14000000 -0.12294948 0.10000000)
		(-0.12000000 -0.12294948 0.10000000)
		(-0.10000000 -0.12294948 0.10000000)
		(-0.08162011 -0.12202550 0.10000000)
		(-0.06324022 -0.11925358 0.10000000)
		(-0.04486034 -0.11463370 0.10000000)
		(-0.02648045 -0.10816588 0.10000000)
		(-0.00810056 -0.09985010 0.10000000)
		(0.01027933 -0.08968638 0.10000000)
		(0.02865922 -0.07767470 0.10000000)
		(0.04703911 -0.06381507 0.10000000)
		(0.06541899 -0.04810750 0.10000000)
		(0.08379888 -0.03055197 0.10000000)
		(0.10055866 -0.01104297 0.10000000)
		(0.11731844 0.00853374 0.10000000)
		(0.13407821 0.02805812 0.10000000)
		(0.15083799 0.04741045 0.10000000)
		(0.16759777 0.06647205 0.10000000)
		(0.18435754 0.08512604 0.10000000)
		(0.20111732 0.10325802 0.10000000)
		(0.21787709 0.12075682 0.10000000)
		(0.23463687 0.13751512 0.10000000)
		(0.25139665 0.15343015 0.10000000)
		(0.26815642 0.16840434 0.10000000)
		(0.28491620 0.18234585 0.10000000)
		(0.30167598 0.19516920 0.10000000)
		(0.31843575 0.20679575 0.10000000)
		(0.33519553 0.21715420 0.10000000)
		(0.35195531 0.22618103 0.10000000)
		(0.36871508 0.23382090 0.10000000)
		(0.38547486 0.24002694 0.10000000)
		(0.40223464 0.24476112 0.10000000)
		(0.41899441 0.24799439 0.10000000)
		(0.43575419 0.24970693 0.10000000)
		(0.45251397 0.24988824 0.10000000)
		(0.46927374 0.24853720 0.10000000)
		(0.48603352 0.24566211 0.10000000)
		(0.50279330 0.24128058 0.10000000)
		(0.51955307 0.23541950 0.10000000)
		(0.53631285 0.22811479 0.10000000)
		(0.55307263 0.21941126 0.10000000)
		(0.56983240 0.20936227 0.10000000)
		(0.58659218 0.19802945 0.10000000)
		(0.60335196 0.18548228 0.10000000)
		(0.62011173 0.17179772 0.10000000)
		(0.63687151 0.15705968 0.10000000)
		(0.65363128 0.14135852 0.10000000)
		(0.67039106 0.12479054 0.10000000)
		(0.68715084 0.10745733 0.10000000)
		(0.70391061 0.08946518 0.10000000)
		(0.72067039 0.07092441 0.10000000)
		(0.73743017 0.05194873 0.10000000)
		(0.75418994 0.03265450 0.10000000)
		(0.77094972 0.01316002 0.10000000)
		(0.78770950 -0.00641516 0.10000000)
		(0.80446927 -0.02595099 0.10000000)
		(0.82122905 -0.04532770 0.10000000)
		(0.83798883 -0.06442644 0.10000000)
		(0.85474860 -0.08313012 0.10000000)
		(0.87150838 -0.10132404 0.10000000)
		(0.88826816 -0.11889662 0.10000000)
		(0.90502793 -0.13574011 0.10000000)
		(0.92178771 -0.15175124 0.10000000)
		(0.93854749 -0.16683180 0.10000000)
		(0.95530726 -0.18088933 0.10000000)
		(0.97206704 -0.19383763 0.10000000)
		(0.98882682 -0.20559729 0.10000000)
		(1.00558659 -0.21609621 0.10000000)
		(1.02234637 -0.22526999 0.10000000)
		(1.03910615 -0.23306240 0.10000000)
		(1.05586592 -0.23942564 0.10000000)
		(1.07262570 -0.24432069 0.10000000)
		(1.08938547 -0.24771754 0.10000000)
		(1.10614525 -0.24959536 0.10000000)
		(1.12290503 -0.24994263 0.10000000)
		(1.13966480 -0.24875722 0.10000000)
		(1.15642458 -0.24604640 0.10000000)
		(1.17318436 -0.24182680 0.10000000)
		(1.18994413 -0.23612428 0.10000000)
		(1.20670391 -0.22897383 0.10000000)
		(1.22346369 -0.22041928 0.10000000)
		(1.24022346 -0.21051309 0.10000000)
		(1.25698324 -0.19931601 0.10000000)
		(1.27374302 -0.18689671 0.10000000)
		(1.29050279 -0.17333132 0.10000000)
		(1.30726257 -0.15870306 0.10000000)
		(1.32402235 -0.14310160 0.10000000)
		(1.34078212 -0.12662263 0.10000000)
		(1.35754190 -0.10936720 0.10000000)
		(1.37430168 -0.09144111 0.10000000)
		(1.39106145 -0.07295430 0.10000000)
		(1.40782123 -0.05402012 0.10000000)
		(1.42458101 -0.03475468 0.10000000)
		(1.44134078 -0.01527612 0.10000000)
		(1.45810056 0.00429611 0.10000000)
		(1.47486034 0.02384200 0.10000000)
		(1.49162011 0.04324168 0.10000000)
		(1.50837989 0.06237621 0.10000000)
		(1.52513966 0.08112823 0.10000000)
		(1.54189944 0.09938277 0.10000000)
		(1.55865922 0.11702788 0.10000000)
		(1.57541899 0.13395536 0.10000000)
		(1.59217877 0.15006141 0.10000000)
		(1.60893855 0.16524726 0.10000000)
		(1.62569832 0.17941981 0.10000000)
		(1.64245810 0.19249212 0.10000000)
		(1.65921788 0.20438406 0.10000000)
		(1.67597765 0.21502268 0.10000000)
		(1.69273743 0.22434276 0.10000000)
		(1.70949721 0.23228715 0.10000000)
		(1.72625698 0.23880712 0.10000000)
		(1.74301676 0.24386270 0.10000000)
		(1.75977654 0.24742289 0.10000000)
		(1.77653631 0.24946585 0.10000000)
		(1.79329609 0.24997905 0.10000000)
		(1.81005587 0.24895935 0.10000000)
		(1.82681564 0.24641301 0.10000000)
		(1.84357542 0.24235563 0.10000000)
		(1.86033520 0.23681210 0.10000000)
		(1.87709497 0.22981641 0.10000000)
		(1.89385475 0.22141146 0.10000000)
		(1.91061453 0.21164878 0.10000000)
		(1.92737430 0.20058825 0.10000000)
		(1.94413408 0.18829769 0.10000000)
		(1.96089385 0.17485247 0.10000000)
		(1.97765363 0.16033503 0.10000000)
		(1.99441341 0.14483440 0.10000000)
		(2.01117318 0.12844562 0.10000000)
		(2.02793296 0.11126921 0.10000000)
		(2.04469274 0.09341047 0.10000000)
		(2.06145251 0.07497893 0.10000000)
		(2.07821229 0.05608762 0.10000000)
		(2.09497207 0.03685236 0.10000000)
		(2.11173184 0.01739113 0.10000000)
		(2.12849162 -0.00217676 0.10000000)
		(2.14525140 -0.02173129 0.10000000)
		(2.16201117 -0.04115256 0.10000000)
		(2.17877095 -0.06032148 0.10000000)
		(2.19553073 -0.07912051 0.10000000)
		(2.21229050 -0.09743435 0.10000000)
		(2.22905028 -0.11515072 0.10000000)
		(2.24581006 -0.13216097 0.10000000)
		(2.26256983 -0.14836079 0.10000000)
		(2.27932961 -0.16365085 0.10000000)
		(2.29608939 -0.17793738 0.10000000)
		(2.31284916 -0.19113278 0.10000000)
		(2.32960894 -0.20315613 0.10000000)
		(2.34636872 -0.21393370 0.10000000)
		(2.36312849 -0.22339941 0.10000000)
		(2.37988827 -0.23149520 0.10000000)
		(2.39664804 -0.23817144 0.10000000)
		(2.41340782 -0.24338718 0.10000000)
		(2.43016760 -0.24711045 0.10000000)
		(2.44692737 -0.24931840 0.10000000)
		(2.46368715 -0.24999750 0.10000000)
		(2.48044693 -0.24914359 0.10000000)
		(2.49720670 -0.24676191 0.10000000)
		(2.51396648 -0.24286704 0.10000000)
		(2.53072626 -0.23748289 0.10000000)
		(2.54748603 -0.23064247 0.10000000)
		(2.56424581 -0.22238772 0.10000000)
		(2.58100559 -0.21276926 0.10000000)
		(2.59776536 -0.20184607 0.10000000)
		(2.61452514 -0.18968515 0.10000000)
		(2.63128492 -0.17636105 0.10000000)
		(2.64804469 -0.16195548 0.10000000)
		(2.66480447 -0.14655678 0.10000000)
		(2.68156425 -0.13025938 0.10000000)
		(2.69832402 -0.11316321 0.10000000)
		(2.71508380 -0.09537312 0.10000000)
		(2.73184358 -0.07699818 0.10000000)
		(2.74860335 -0.05815108 0.10000000)
		(2.76536313 -0.03894740 0.10000000)
		(2.78212291 -0.01950488 0.10000000)
		(2.79888268 0.00005724 0.10000000)
		(2.81564246 0.01961902 0.10000000)
		(2.83240223 0.03906048 0.10000000)
		(2.84916201 0.05826243 0.10000000)
		(2.86592179 0.07710710 0.10000000)
		(2.88268156 0.09547894 0.10000000)
		(2.89944134 0.11326529 0.10000000)
		(2.91620112 0.13035709 0.10000000)
		(2.93296089 0.14664952 0.10000000)
		(2.95166480 0.15714969 0.10000000)
		(2.97036872 0.16654459 0.10000000)
		(2.98907263 0.17483420 0.10000000)
		(3.00777654 0.18201853 0.10000000)
		(3.02648045 0.18809758 0.10000000)
		(3.04518436 0.19307135 0.10000000)
		(3.06388827 0.19693984 0.10000000)
		(3.08259218 0.19970304 0.10000000)
		(3.10129609 0.20136096 0.10000000)
		(3.12000000 0.20191360 0.10000000)
		(3.14000000 0.20191360 0.10000000)
		(3.16000000 0.20191360 0.10000000)
		(3.18000000 0.20191360 0.10000000)
		(3.20000000 0.20191360 0.10000000)
		(3.22000000 0.20191360 0.10000000)
		(3.24000000 0.20191360 0.10000000)
		(3.26000000 0.20191360 0.10000000)
		(3.28000000 0.20191360 0.10000000)
		(3.30000000 0.20191360 0.10000000)
		(3.32000000 0.20191360 0.10000000)
		(3.34000000 0.20191360 0.10000000)
		(3.36000000 0.20191360 0.10000000)
		(3.38000000 0.20191360 0.10000000)
		(3.40000000 0.20191360 0.10000000)
		(3.42000000 0.20191360 0.10000000)
		(3.44000000 0.20191360 0.10000000)
		(3.46000000 0.20191360 0.10000000)
		(3.48000000 0.20191360 0.10000000)
		(3.50000000 0.20191360 0.10000000)
		(3.52000000 0.20191360 0.10000000)
		(3.54000000 0.20191360 0.10000000)
		(3.56000000 0.20191360 0.10000000)
		(3.58000000 0.20191360 0.10000000)
		(3.60000000 0.20191360 0.10000000)
		(3.62000000 0.20191360 0.10000000)
		(3.64000000 0.20191360 0.10000000)
		(3.66000000 0.20191360 0.10000000)
		(3.68000000 0.20191360 0.10000000)
		(3.70000000 0.20191360 0.10000000)
		(3.72000000 0.20191360 0.10000000)
		(3.74000000 0.20191360 0.10000000)
		(3.76000000 0.20191360 0.10000000)
		(3.78000000 0.20191360 0.10000000)
		(3.80000000 0.20191360 0.10000000)
		(3.82000000 0.20191360 0.10000000)
		(3.84000000 0.20191360 0.10000000)
		(3.86000000 0.20191360 0.10000000)
		(3.88000000 0.20191360 0.10000000)
		(3.90000000 0.20191360 0.10000000)
		(3.92000000 0.20191360 0.10000000)
		(3.94000000 0.20191360 0.10000000)
		(3.96000000 0.20191360 0.10000000)
		(3.98000000 0.20191360 0.10000000)
		(4.00000000 0.20191360 0.10000000)
	)
	polyLine 3 2
	(
		(-1.00000000 0.37705052 0.00000000)
		(-0.98000000 0.37471947 0.00000000)
		(-0.96000000 0.37238841 0.00000000)
		(-0.94000000 0.37005736 0.00000000)
		(-0.92000000 0.36772631 0.00000000)
		(-0.90000000 0.36539525 0.00000000)
		(-0.88000000 0.36306420 0.00000000)
		(-0.86000000 0.36073315 0.00000000)
		(-0.84000000 0.35840209 0.00000000)
		(-0.82000000 0.35607104 0.00000000)
		(-0.80000000 0.35373999 0.00000000)
		(-0.78000000 0.35140894 0.00000000)
		(-0.76000000 0.34907788 0.00000000)
		(-0.74000000 0.34674683 0.00000000)
		(-0.72000000 0.34441578 0.00000000)
		(-0.70000000 0.34208472 0.00000000)
		(-0.68000000 0.33975367 0.00000000)
		(-0.66000000 0.33742262 0.00000000)
		(-0.64000000 0.33509156 0.00000000)
		(-0.62000000 0.33276051 0.00000000)
		(-0.60000000 0.33042946 0.00000000)
		(-0.58000000 0.32809840 0.00000000)
		(-0.56000000 0.32576735 0.00000000)
		(-0.54000000 0.32343630 0.00000000)
		(-0.52000000 0.32110524 0.00000000)
		(-0.50000000 0.31877419 0.00000000)
		(-0.48000000 0.31644314 0.00000000)
		(-0.46000000 0.31411208 0.00000000)
		(-0.44000000 0.31178103 0.00000000)
		(-0.42000000 0.30944998 0.00000000)
		(-0.40000000 0.30711892 0.00000000)
		(-0.38000000 0.30478787 0.00000000)
		(-0.36000000 0.30245682 0.00000000)
		(-0.34000000 0.30012577 0.00000000)
		(-0.32000000 0.29779471 0.00000000)
		(-0.30000000 0.29546366 0.00000000)
		(-0.28000000 0.29313261 0.00000000)
		(-0.26000000 0.29080155 0.00000000)
		(-0.24000000 0.28847050 0.00000000)
		(-0.22000000 0.28613945 0.00000000)
		(-0.20000000 0.28380839 0.00000000)
		(-0.18000000 0.28147734 0.00000000)
		(-0.16000000 0.27914629 0.00000000)
		(-0.14000000 0.27681523 0.00000000)
		(-0.12000000 0.27448418 0.00000000)
		(-0.10000000 0.27215313 0.00000000)
		(-0.08162011 0.26933072 0.00000000)
		(-0.06324022 0.27088911 0.00000000)
		(-0.04486034 0.27682829 0.00000000)
		(-0.02648045 0.28714827 0.00000000)
		(-0.00810056 0.30184905 0.00000000)
		(0.01027933 0.32093062 0.00000000)
		(0.02865922 0.34439299 0.00000000)
		(0.04703911 0.37223615 0.00000000)
		(0.06541899 0.40446011 0.00000000)
		(0.08379888 0.44106487 0.00000000)
		(0.10055866 0.47869797 0.00000000)
		(0.11731844 0.51646169 0.00000000)
		(0.13407821 0.55412447 0.00000000)
		(0.15083799 0.59145536 0.00000000)
		(0.16759777 0.62822542 0.00000000)
		(0.18435754 0.66420920 0.00000000)
		(0.20111732 0.69918602 0.00000000)
		(0.21787709 0.73294141 0.00000000)
		(0.23463687 0.76526838 0.00000000)
		(0.25139665 0.79596869 0.00000000)
		(0.26815642 0.82485409 0.00000000)
		(0.28491620 0.85174744 0.00000000)
		(0.30167598 0.87648383 0.00000000)
		(0.31843575 0.89891158 0.00000000)
		(0.33519553 0.91889316 0.00000000)
		(0.35195531 0.93630604 0.00000000)
		(0.36871508 0.95104344 0.00000000)
		(0.38547486 0.96301498 0.00000000)
		(0.40223464 0.97214726 0.00000000)
		(0.41899441 0.97838428 0.00000000)
		(0.43575419 0.98168780 0.00000000)
		(0.45251397 0.98203754 0.00000000)
		(0.46927374 0.97943137 0.00000000)
		(0.48603352 0.97388528 0.00000000)
		(0.50279330 0.96543326 0.00000000)
		(0.51955307 0.95412715 0.00000000)
		(0.53631285 0.94003629 0.00000000)
		(0.55307263 0.92324706 0.00000000)
		(0.56983240 0.90386244 0.00000000)
		(0.58659218 0.88200128 0.00000000)
		(0.60335196 0.85779765 0.00000000)
		(0.62011173 0.83139996 0.00000000)
		(0.63687151 0.80297008 0.00000000)
		(0.65363128 0.77268236 0.00000000)
		(0.67039106 0.74072252 0.00000000)
		(0.68715084 0.70728653 0.00000000)
		(0.70391061 0.67257945 0.00000000)
		(0.72067039 0.63681408 0.00000000)
		(0.73743017 0.60020976 0.00000000)
		(0.75418994 0.56299093 0.00000000)
		(0.77094972 0.52538584 0.00000000)
		(0.78770950 0.48762508 0.00000000)
		(0.80446927 0.44994021 0.00000000)
		(0.82122905 0.41256231 0.00000000)
		(0.83798883 0.37572058 0.00000000)
		(0.85474860 0.33964095 0.00000000)
		(0.87150838 0.30454466 0.00000000)
		(0.88826816 0.27064693 0.00000000)
		(0.90502793 0.23815562 0.00000000)
		(0.92178771 0.20726997 0.00000000)
		(0.93854749 0.17817937 0.00000000)
		(0.95530726 0.15106221 0.00000000)
		(0.97206704 0.12608479 0.00000000)
		(0.98882682 0.10340025 0.00000000)
		(1.00558659 0.08314771 0.00000000)
		(1.02234637 0.06545136 0.00000000)
		(1.03910615 0.05041971 0.00000000)
		(1.05586592 0.03814495 0.00000000)
		(1.07262570 0.02870233 0.00000000)
		(1.08938547 0.02214976 0.00000000)
		(1.10614525 0.01852743 0.00000000)
		(1.12290503 0.01785754 0.00000000)
		(1.13966480 0.02014421 0.00000000)
		(1.15642458 0.02537341 0.00000000)
		(1.17318436 0.03351308 0.00000000)
		(1.18994413 0.04451330 0.00000000)
		(1.20670391 0.05830662 0.00000000)
		(1.22346369 0.07480845 0.00000000)
		(1.24022346 0.09391761 0.00000000)
		(1.25698324 0.11551692 0.00000000)
		(1.27374302 0.13947392 0.00000000)
		(1.29050279 0.16564170 0.00000000)
		(1.30726257 0.19385982 0.00000000)
		(1.32402235 0.22395522 0.00000000)
		(1.34078212 0.25574336 0.00000000)
		(1.35754190 0.28902931 0.00000000)
		(1.37430168 0.32360895 0.00000000)
		(1.39106145 0.35927025 0.00000000)
		(1.40782123 0.39579452 0.00000000)
		(1.42458101 0.43295779 0.00000000)
		(1.44134078 0.47053217 0.00000000)
		(1.45810056 0.50828725 0.00000000)
		(1.47486034 0.54599151 0.00000000)
		(1.49162011 0.58341375 0.00000000)
		(1.50837989 0.62032448 0.00000000)
		(1.52513966 0.65649737 0.00000000)
		(1.54189944 0.69171060 0.00000000)
		(1.55865922 0.72574824 0.00000000)
		(1.57541899 0.75840156 0.00000000)
		(1.59217877 0.78947034 0.00000000)
		(1.60893855 0.81876404 0.00000000)
		(1.62569832 0.84610305 0.00000000)
		(1.64245810 0.87131972 0.00000000)
		(1.65921788 0.89425940 0.00000000)
		(1.67597765 0.91478145 0.00000000)
		(1.69273743 0.93276000 0.00000000)
		(1.70949721 0.94808482 0.00000000)
		(1.72625698 0.96066193 0.00000000)
		(1.74301676 0.97041421 0.00000000)
		(1.75977654 0.97728185 0.00000000)
		(1.77653631 0.98122274 0.00000000)
		(1.79329609 0.98221272 0.00000000)
		(1.81005587 0.98024571 0.00000000)
		(1.82681564 0.97533378 0.00000000)
		(1.84357542 0.96750705 0.00000000)
		(1.86033520 0.95681350 0.00000000)
		(1.87709497 0.94331873 0.00000000)
		(1.89385475 0.92710547 0.00000000)
		(1.91061453 0.90827315 0.00000000)
		(1.92737430 0.88693725 0.00000000)
		(1.94413408 0.86322861 0.00000000)
		(1.96089385 0.83729260 0.00000000)
		(1.97765363 0.80928828 0.00000000)
		(1.99441341 0.77938737 0.00000000)
		(2.01117318 0.74777322 0.00000000)
		(2.02793296 0.71463969 0.00000000)
		(2.04469274 0.68018997 0.00000000)
		(2.06145251 0.64463530 0.00000000)
		(2.07821229 0.60819371 0.00000000)
		(2.09497207 0.57108867 0.00000000)
		(2.11173184 0.53354770 0.00000000)
		(2.12849162 0.49580101 0.00000000)
		(2.14525140 0.45808007 0.00000000)
		(2.16201117 0.42061619 0.00000000)
		(2.17877095 0.38363910 0.00000000)
		(2.19553073 0.34737555 0.00000000)
		(2.21229050 0.31204791 0.00000000)
		(2.22905028 0.27787282 0.00000000)
		(2.24581006 0.24505983 0.00000000)
		(2.26256983 0.21381017 0.00000000)
		(2.27932961 0.18431546 0.00000000)
		(2.29608939 0.15675656 0.00000000)
		(2.31284916 0.13130247 0.00000000)
		(2.32960894 0.10810928 0.00000000)
		(2.34636872 0.08731921 0.00000000)
		(2.36312849 0.06905974 0.00000000)
		(2.37988827 0.05344285 0.00000000)
		(2.39664804 0.04056431 0.00000000)
		(2.41340782 0.03050307 0.00000000)
		(2.43016760 0.02332085 0.00000000)
		(2.44692737 0.01906168 0.00000000)
		(2.46368715 0.01775168 0.00000000)
		(2.48044693 0.01939889 0.00000000)
		(2.49720670 0.02399319 0.00000000)
		(2.51396648 0.03150643 0.00000000)