/*--------------------------------*- C++ -*----------------------------------*\\
/*--------------------------------*- C++ -*----------------------------------*\\
| =========                 |                                                 |
| \\\\      /  F ield         | OpenFOAM: The Open Source CFD Toolbox           |
|  \\\\    /   O peration     | Version:  v2012                                 |
|   \\\\  /    A nd           | Website:  www.openfoam.com                      |
|    \\\\/     M anipulation  |                                                 |
\\*---------------------------------------------------------------------------*/
FoamFile
{
    version     2.0;
    format      ascii;
    class       dictionary;
    object      blockMeshDict;
}
// * * * * * * * * * * * * * * * * * * * * * * * * * * * * * * * * * * * * * //

scale   0.01;

xmin -1;
xmax 5;
ymin 0;
ymax 0.5;
zmin 0;
zmax 0.1;

vertices
(
    (-1.00000000 -0.10713668 0.00000000)
    (4.00000000 0.01233224 0.00000000)
    (4.00000000 0.51233224 0.00000000)
    (-1.00000000 0.39286332 0.00000000)
    (-1.00000000 -0.10713668 0.10000000)
    (4.00000000 0.01233224 0.10000000)
    (4.00000000 0.51233224 0.10000000)
    (-1.00000000 0.39286332 0.10000000)
);

blocks
(
    hex (0 1 2 3 4 5 6 7) (200 20 1) simpleGrading (1 1 1)
);

edges
(
	polyLine 0 1
	(
		(-1.00000000 -0.10713668 0.00000000)
		(-0.98000000 -0.10713668 0.00000000)
		(-0.96000000 -0.10713668 0.00000000)
		(-0.94000000 -0.10713668 0.00000000)
		(-0.92000000 -0.10713668 0.00000000)
		(-0.90000000 -0.10713668 0.00000000)
		(-0.88000000 -0.10713668 0.00000000)
		(-0.86000000 -0.10713668 0.00000000)
		(-0.84000000 -0.10713668 0.00000000)
		(-0.82000000 -0.10713668 0.00000000)
		(-0.80000000 -0.10713668 0.00000000)
		(-0.78000000 -0.10713668 0.00000000)
		(-0.76000000 -0.10713668 0.00000000)
		(-0.74000000 -0.10713668 0.00000000)
		(-0.72000000 -0.10713668 0.00000000)
		(-0.70000000 -0.10713668 0.00000000)
		(-0.68000000 -0.10713668 0.00000000)
		(-0.66000000 -0.10713668 0.00000000)
		(-0.64000000 -0.10713668 0.00000000)
		(-0.62000000 -0.10713668 0.00000000)
		(-0.60000000 -0.10713668 0.00000000)
		(-0.58000000 -0.10713668 0.00000000)
		(-0.56000000 -0.10713668 0.00000000)
		(-0.54000000 -0.10713668 0.00000000)
		(-0.52000000 -0.10713668 0.00000000)
		(-0.50000000 -0.10713668 0.00000000)
		(-0.48000000 -0.10713668 0.00000000)
		(-0.46000000 -0.10713668 0.00000000)
		(-0.44000000 -0.10713668 0.00000000)
		(-0.42000000 -0.10713668 0.00000000)
		(-0.40000000 -0.10713668 0.00000000)
		(-0.38000000 -0.10713668 0.00000000)
		(-0.36000000 -0.10713668 0.00000000)
		(-0.34000000 -0.10713668 0.00000000)
		(-0.32000000 -0.10713668 0.00000000)
		(-0.30000000 -0.10713668 0.00000000)
		(-0.28000000 -0.10713668 0.00000000)
		(-0.26000000 -0.10713668 0.00000000)
		(-0.24000000 -0.10713668 0.00000000)
		(-0.22000000 -0.10713668 0.00000000)
		(-0.20000000 -0.10713668 0.00000000)
		(-0.18000000 -0.10713668 0.00000000)
		(-0.16000000 -0.10713668 0.00000000)
		(-0.14000000 -0.10713668 0.00000000)
		(-0.12000000 -0.10713668 0.00000000)
		(-0.10000000 -0.10713668 0.00000000)
		(-0.08162011 -0.10604812 0.00000000)
		(-0.06324022 -0.10278243 0.00000000)
		(-0.04486034 -0.09733961 0.00000000)
		(-0.02648045 -0.08971966 0.00000000)
		(-0.00810056 -0.07992259 0.00000000)
		(0.01027933 -0.06794839 0.00000000)
		(0.02865922 -0.05379706 0.00000000)
		(0.04703911 -0.03746860 0.00000000)
		(0.06541899 -0.01896302 0.00000000)
		(0.08379888 0.00171969 0.00000000)
		(0.10055866 0.02417002 0.00000000)
		(0.11731844 0.04642490 0.00000000)
		(0.13407821 0.06830440 0.00000000)
		(0.15083799 0.08963159 0.00000000)
		(0.16759777 0.11023401 0.00000000)
		(0.18435754 0.12994509 0.00000000)
		(0.20111732 0.14860543 0.00000000)
		(0.21787709 0.16606414 0.00000000)
		(0.23463687 0.18218006 0.00000000)
		(0.25139665 0.19682288 0.00000000)
		(0.26815642 0.20987418 0.00000000)
		(0.28491620 0.22122844 0.00000000)
		(0.30167598 0.23079385 0.00000000)
		(0.31843575 0.23849306 0.00000000)
		(0.33519553 0.24426382 0.00000000)
		(0.35195531 0.24805946 0.00000000)
		(0.36871508 0.24984929 0.00000000)
		(0.38547486 0.24961884 0.00000000)
		(0.40223464 0.24736997 0.00000000)
		(0.41899441 0.24312087 0.00000000)
		(0.43575419 0.23690589 0.00000000)
		(0.45251397 0.22877530 0.00000000)
		(0.46927374 0.21879482 0.00000000)
		(0.48603352 0.20704517 0.00000000)
		(0.50279330 0.19362136 0.00000000)
		(0.51955307 0.17863192 0.00000000)
		(0.53631285 0.16219807 0.00000000)
		(0.55307263 0.14445268 0.00000000)
		(0.56983240 0.12553925 0.00000000)
		(0.58659218 0.10561071 0.00000000)
		(0.60335196 0.08482820 0.00000000)
		(0.62011173 0.06335977 0.00000000)
		(0.63687151 0.04137901 0.00000000)
		(0.65363128 0.01906366 0.00000000)
		(0.67039106 -0.00340583 0.00000000)
		(0.68715084 -0.02584779 0.00000000)
		(0.70391061 -0.04808074 0.00000000)
		(0.72067039 -0.06992491 0.00000000)
		(0.73743017 -0.09120367 0.00000000)
		(0.75418994 -0.11174496 0.00000000)
		(0.77094972 -0.13138267 0.00000000)
		(0.78770950 -0.14995803 0.00000000)
		(0.80446927 -0.16732083 0.00000000)
		(0.82122905 -0.18333067 0.00000000)
		(0.83798883 -0.19785809 0.00000000)
		(0.85474860 -0.21078564 0.00000000)
		(0.87150838 -0.22200878 0.00000000)
		(0.88826816 -0.23143675 0.00000000)
		(0.90502793 -0.23899333 0.00000000)
		(0.92178771 -0.24461740 0.00000000)
		(0.93854749 -0.24826350 0.00000000)
		(0.95530726 -0.24990215 0.00000000)
		(0.97206704 -0.24952008 0.00000000)
		(0.98882682 -0.24712040 0.00000000)
		(1.00558659 -0.24272250 0.00000000)
		(1.02234637 -0.23636194 0.00000000)
		(1.03910615 -0.22809017 0.00000000)
		(1.05586592 -0.21797405 0.00000000)
		(1.07262570 -0.20609540 0.00000000)
		(1.08938547 -0.19255026 0.00000000)
		(1.10614525 -0.17744817 0.00000000)
		(1.12290503 -0.16091122 0.00000000)
		(1.13966480 -0.14307315 0.00000000)
		(1.15642458 -0.12407819 0.00000000)
		(1.17318436 -0.10407993 0.00000000)
		(1.18994413 -0.08324008 0.00000000)
		(1.20670391 -0.06172716 0.00000000)
		(1.22346369 -0.03971510 0.00000000)
		(1.24022346 -0.01738192 0.00000000)
		(1.25698324 0.00509182 0.00000000)
		(1.27374302 0.02752439 0.00000000)
		(1.29050279 0.04973439 0.00000000)
		(1.30726257 0.07154225 0.00000000)
		(1.32402235 0.09277161 0.00000000)
		(1.34078212 0.11325082 0.00000000)
		(1.35754190 0.13281428 0.00000000)
		(1.37430168 0.15130381 0.00000000)
		(1.39106145 0.16856990 0.00000000)
		(1.40782123 0.18447293 0.00000000)
		(1.42458101 0.19888431 0.00000000)
		(1.44134078 0.21168751 0.00000000)
		(1.45810056 0.22277901 0.00000000)
		(1.47486034 0.23206912 0.00000000)
		(1.49162011 0.23948272 0.00000000)
		(1.50837989 0.24495986 0.00000000)
		(1.52513966 0.24845626 0.00000000)
		(1.54189944 0.24994364 0.00000000)
		(1.55865922 0.24940997 0.00000000)
		(1.57541899 0.24685958 0.00000000)
		(1.59217877 0.24231308 0.00000000)
		(1.60893855 0.23580724 0.00000000)
		(1.62569832 0.22739466 0.00000000)
		(1.64245810 0.21714337 0.00000000)
		(1.65921788 0.20513625 0.00000000)
		(1.67597765 0.19147041 0.00000000)
		(1.69273743 0.17625634 0.00000000)
		(1.70949721 0.15961705 0.00000000)
		(1.72625698 0.14168711 0.00000000)
		(1.74301676 0.12261148 0.00000000)
		(1.75977654 0.10254442 0.00000000)
		(1.77653631 0.08164818 0.00000000)
		(1.79329609 0.06009174 0.00000000)
		(1.81005587 0.03804939 0.00000000)
		(1.82681564 0.01569938 0.00000000)
		(1.84357542 -0.00677758 0.00000000)
		(1.86033520 -0.02919974 0.00000000)
		(1.87709497 -0.05138578 0.00000000)
		(1.89385475 -0.07315632 0.00000000)
		(1.91061453 -0.09433532 0.00000000)
		(1.92737430 -0.11475152 0.00000000)
		(1.94413408 -0.13423985 0.00000000)
		(1.96089385 -0.15264271 0.00000000)
		(1.97765363 -0.16981130 0.00000000)
		(1.99441341 -0.18560679 0.00000000)
		(2.01117318 -0.19990147 0.00000000)
		(2.02793296 -0.21257975 0.00000000)
		(2.04469274 -0.22353911 0.00000000)
		(2.06145251 -0.23269093 0.00000000)
		(2.07821229 -0.23996122 0.00000000)
		(2.09497207 -0.24529117 0.00000000)
		(2.11173184 -0.24863771 0.00000000)
		(2.12849162 -0.24997375 0.00000000)
		(2.14525140 -0.24928852 0.00000000)
		(2.16201117 -0.24658753 0.00000000)
		(2.17877095 -0.24189264 0.00000000)
		(2.19553073 -0.23524181 0.00000000)
		(2.21229050 -0.22668881 0.00000000)
		(2.22905028 -0.21630280 0.00000000)
		(2.24581006 -0.20416777 0.00000000)
		(2.26256983 -0.19038184 0.00000000)
		(2.27932961 -0.17505649 0.00000000)
		(2.29608939 -0.15831562 0.00000000)
		(2.31284916 -0.14029462 0.00000000)
		(2.32960894 -0.12113920 0.00000000)
		(2.34636872 -0.10100424 0.00000000)
		(2.36312849 -0.08005256 0.00000000)
		(2.37988827 -0.05845358 0.00000000)
		(2.39664804 -0.03638195 0.00000000)
		(2.41340782 -0.01401613 0.00000000)
		(2.43016760 0.00846303 0.00000000)
		(2.44692737 0.03087375 0.00000000)
		(2.46368715 0.05303483 0.00000000)
		(2.48044693 0.07476707 0.00000000)
		(2.49720670 0.09589474 0.00000000)
		(2.51396648 0.11624701 0.00000000)
		(2.53072626 0.13565930 0.00000000)
		(2.54748603 0.15397466 0.00000000)
		(2.56424581 0.17104497 0.00000000)
		(2.58100559 0.18673222 0.00000000)
		(2.59776536 0.20090955 0.00000000)
		(2.61452514 0.21346232 0.00000000)
		(2.63128492 0.22428904 0.00000000)
		(2.64804469 0.23330216 0.00000000)
		(2.66480447 0.24042880 0.00000000)
		(2.68156425 0.24561133 0.00000000)
		(2.69832402 0.24880784 0.00000000)
		(2.71508380 0.24999250 0.00000000)
		(2.73184358 0.24915572 0.00000000)
		(2.74860335 0.24630427 0.00000000)
		(2.76536313 0.24146120 0.00000000)
		(2.78212291 0.23466567 0.00000000)
		(2.79888268 0.22597264 0.00000000)
		(2.81564246 0.21545240 0.00000000)
		(2.83240223 0.20319000 0.00000000)
		(2.84916201 0.18928462 0.00000000)
		(2.86592179 0.17384867 0.00000000)
		(2.88268156 0.15700699 0.00000000)
		(2.89944134 0.13889575 0.00000000)
		(2.91620112 0.11966140 0.00000000)
		(2.93296089 0.09945947 0.00000000)
		(2.95166480 0.08290529 0.00000000)
		(2.97036872 0.06809366 0.00000000)
		(2.98907263 0.05502458 0.00000000)
		(3.00777654 0.04369804 0.00000000)
		(3.02648045 0.03411404 0.00000000)
		(3.04518436 0.02627259 0.00000000)
		(3.06388827 0.02017369 0.00000000)
		(3.08259218 0.01581733 0.00000000)
		(3.10129609 0.01320351 0.00000000)
		(3.12000000 0.01233224 0.00000000)
		(3.14000000 0.01233224 0.00000000)
		(3.16000000 0.01233224 0.00000000)
		(3.18000000 0.01233224 0.00000000)
		(3.20000000 0.01233224 0.00000000)
		(3.22000000 0.01233224 0.00000000)
		(3.24000000 0.01233224 0.00000000)
		(3.26000000 0.01233224 0.00000000)
		(3.28000000 0.01233224 0.00000000)
		(3.30000000 0.01233224 0.00000000)
		(3.32000000 0.01233224 0.00000000)
		(3.34000000 0.01233224 0.00000000)
		(3.36000000 0.01233224 0.00000000)
		(3.38000000 0.01233224 0.00000000)
		(3.40000000 0.01233224 0.00000000)
		(3.42000000 0.01233224 0.00000000)
		(3.44000000 0.01233224 0.00000000)
		(3.46000000 0.01233224 0.00000000)
		(3.48000000 0.01233224 0.00000000)
		(3.50000000 0.01233224 0.00000000)
		(3.52000000 0.01233224 0.00000000)
		(3.54000000 0.01233224 0.00000000)
		(3.56000000 0.01233224 0.00000000)
		(3.58000000 0.01233224 0.00000000)
		(3.60000000 0.01233224 0.00000000)
		(3.62000000 0.01233224 0.00000000)
		(3.64000000 0.01233224 0.00000000)
		(3.66000000 0.01233224 0.00000000)
		(3.68000000 0.01233224 0.00000000)
		(3.70000000 0.01233224 0.00000000)
		(3.72000000 0.01233224 0.00000000)
		(3.74000000 0.01233224 0.00000000)
		(3.76000000 0.01233224 0.00000000)
		(3.78000000 0.01233224 0.00000000)
		(3.80000000 0.01233224 0.00000000)
		(3.82000000 0.01233224 0.00000000)
		(3.84000000 0.01233224 0.00000000)
		(3.86000000 0.01233224 0.00000000)
		(3.88000000 0.01233224 0.00000000)
		(3.90000000 0.01233224 0.00000000)
		(3.92000000 0.01233224 0.00000000)
		(3.94000000 0.01233224 0.00000000)
		(3.96000000 0.01233224 0.00000000)
		(3.98000000 0.01233224 0.00000000)
		(4.00000000 0.01233224 0.00000000)
	)
	polyLine 4 5
	(
		(-1.00000000 -0.10713668 0.10000000)
		(-0.98000000 -0.10713668 0.10000000)
		(-0.96000000 -0.10713668 0.10000000)
		(-0.94000000 -0.10713668 0.10000000)
		(-0.92000000 -0.10713668 0.10000000)
		(-0.90000000 -0.10713668 0.10000000)
		(-0.88000000 -0.10713668 0.10000000)
		(-0.86000000 -0.10713668 0.10000000)
		(-0.84000000 -0.10713668 0.10000000)
		(-0.82000000 -0.10713668 0.10000000)
		(-0.80000000 -0.10713668 0.10000000)
		(-0.78000000 -0.10713668 0.10000000)
		(-0.76000000 -0.10713668 0.10000000)
		(-0.74000000 -0.10713668 0.10000000)
		(-0.72000000 -0.10713668 0.10000000)
		(-0.70000000 -0.10713668 0.10000000)
		(-0.68000000 -0.10713668 0.10000000)
		(-0.66000000 -0.10713668 0.10000000)
		(-0.64000000 -0.10713668 0.10000000)
		(-0.62000000 -0.10713668 0.10000000)
		(-0.60000000 -0.10713668 0.10000000)
		(-0.58000000 -0.10713668 0.10000000)
		(-0.56000000 -0.10713668 0.10000000)
		(-0.54000000 -0.10713668 0.10000000)
		(-0.52000000 -0.10713668 0.10000000)
		(-0.50000000 -0.10713668 0.10000000)
		(-0.48000000 -0.10713668 0.10000000)
		(-0.46000000 -0.10713668 0.10000000)
		(-0.44000000 -0.10713668 0.10000000)
		(-0.42000000 -0.10713668 0.10000000)
		(-0.40000000 -0.10713668 0.10000000)
		(-0.38000000 -0.10713668 0.10000000)
		(-0.36000000 -0.10713668 0.10000000)
		(-0.34000000 -0.10713668 0.10000000)
		(-0.32000000 -0.10713668 0.10000000)
		(-0.30000000 -0.10713668 0.10000000)
		(-0.28000000 -0.10713668 0.10000000)
		(-0.26000000 -0.10713668 0.10000000)
		(-0.24000000 -0.10713668 0.10000000)
		(-0.22000000 -0.10713668 0.10000000)
		(-0.20000000 -0.10713668 0.10000000)
		(-0.18000000 -0.10713668 0.10000000)
		(-0.16000000 -0.10713668 0.10000000)
		(-0.14000000 -0.10713668 0.10000000)
		(-0.12000000 -0.10713668 0.10000000)
		(-0.10000000 -0.10713668 0.10000000)
		(-0.08162011 -0.10604812 0.10000000)
		(-0.06324022 -0.10278243 0.10000000)
		(-0.04486034 -0.09733961 0.10000000)
		(-0.02648045 -0.08971966 0.10000000)
		(-0.00810056 -0.07992259 0.10000000)
		(0.01027933 -0.06794839 0.10000000)
		(0.02865922 -0.05379706 0.10000000)
		(0.04703911 -0.03746860 0.10000000)
		(0.06541899 -0.01896302 0.10000000)
		(0.08379888 0.00171969 0.10000000)
		(0.10055866 0.02417002 0.10000000)
		(0.11731844 0.04642490 0.10000000)
		(0.13407821 0.06830440 0.10000000)
		(0.15083799 0.08963159 0.10000000)
		(0.16759777 0.11023401 0.10000000)
		(0.18435754 0.12994509 0.10000000)
		(0.20111732 0.14860543 0.10000000)
		(0.21787709 0.16606414 0.10000000)
		(0.23463687 0.18218006 0.10000000)
		(0.25139665 0.19682288 0.10000000)
		(0.26815642 0.20987418 0.10000000)
		(0.28491620 0.22122844 0.10000000)
		(0.30167598 0.23079385 0.10000000)
		(0.31843575 0.23849306 0.10000000)
		(0.33519553 0.24426382 0.10000000)
		(0.35195531 0.24805946 0.10000000)
		(0.36871508 0.24984929 0.10000000)
		(0.38547486 0.24961884 0.10000000)
		(0.40223464 0.24736997 0.10000000)
		(0.41899441 0.24312087 0.10000000)
		(0.43575419 0.23690589 0.10000000)
		(0.45251397 0.22877530 0.10000000)
		(0.46927374 0.21879482 0.10000000)
		(0.48603352 0.20704517 0.10000000)
		(0.50279330 0.19362136 0.10000000)
		(0.51955307 0.17863192 0.10000000)
		(0.53631285 0.16219807 0.10000000)
		(0.55307263 0.14445268 0.10000000)
		(0.56983240 0.12553925 0.10000000)
		(0.58659218 0.10561071 0.10000000)
		(0.60335196 0.08482820 0.10000000)
		(0.62011173 0.06335977 0.10000000)
		(0.63687151 0.04137901 0.10000000)
		(0.65363128 0.01906366 0.10000000)
		(0.67039106 -0.00340583 0.10000000)
		(0.68715084 -0.02584779 0.10000000)
		(0.70391061 -0.04808074 0.10000000)
		(0.72067039 -0.06992491 0.10000000)
		(0.73743017 -0.09120367 0.10000000)
		(0.75418994 -0.11174496 0.10000000)
		(0.77094972 -0.13138267 0.10000000)
		(0.78770950 -0.14995803 0.10000000)
		(0.80446927 -0.16732083 0.10000000)
		(0.82122905 -0.18333067 0.10000000)
		(0.83798883 -0.19785809 0.10000000)
		(0.85474860 -0.21078564 0.10000000)
		(0.87150838 -0.22200878 0.10000000)
		(0.88826816 -0.23143675 0.10000000)
		(0.90502793 -0.23899333 0.10000000)
		(0.92178771 -0.24461740 0.10000000)
		(0.93854749 -0.24826350 0.10000000)
		(0.95530726 -0.24990215 0.10000000)
		(0.97206704 -0.24952008 0.10000000)
		(0.98882682 -0.24712040 0.10000000)
		(1.00558659 -0.24272250 0.10000000)
		(1.02234637 -0.23636194 0.10000000)
		(1.03910615 -0.22809017 0.10000000)
		(1.05586592 -0.21797405 0.10000000)
		(1.07262570 -0.20609540 0.10000000)
		(1.08938547 -0.19255026 0.10000000)
		(1.10614525 -0.17744817 0.10000000)
		(1.12290503 -0.16091122 0.10000000)
		(1.13966480 -0.14307315 0.10000000)
		(1.15642458 -0.12407819 0.10000000)
		(1.17318436 -0.10407993 0.10000000)
		(1.18994413 -0.08324008 0.10000000)
		(1.20670391 -0.06172716 0.10000000)
		(1.22346369 -0.03971510 0.10000000)
		(1.24022346 -0.01738192 0.10000000)
		(1.25698324 0.00509182 0.10000000)
		(1.27374302 0.02752439 0.10000000)
		(1.29050279 0.04973439 0.10000000)
		(1.30726257 0.07154225 0.10000000)
		(1.32402235 0.09277161 0.10000000)
		(1.34078212 0.11325082 0.10000000)
		(1.35754190 0.13281428 0.10000000)
		(1.37430168 0.15130381 0.10000000)
		(1.39106145 0.16856990 0.10000000)
		(1.40782123 0.18447293 0.10000000)
		(1.42458101 0.19888431 0.10000000)
		(1.44134078 0.21168751 0.10000000)
		(1.45810056 0.22277901 0.10000000)
		(1.47486034 0.23206912 0.10000000)
		(1.49162011 0.23948272 0.10000000)
		(1.50837989 0.24495986 0.10000000)
		(1.52513966 0.24845626 0.10000000)
		(1.54189944 0.24994364 0.10000000)
		(1.55865922 0.24940997 0.10000000)
		(1.57541899 0.24685958 0.10000000)
		(1.59217877 0.24231308 0.10000000)
		(1.60893855 0.23580724 0.10000000)
		(1.62569832 0.22739466 0.10000000)
		(1.64245810 0.21714337 0.10000000)
		(1.65921788 0.20513625 0.10000000)
		(1.67597765 0.19147041 0.10000000)
		(1.69273743 0.17625634 0.10000000)
		(1.70949721 0.15961705 0.10000000)
		(1.72625698 0.14168711 0.10000000)
		(1.74301676 0.12261148 0.10000000)
		(1.75977654 0.10254442 0.10000000)
		(1.77653631 0.08164818 0.10000000)
		(1.79329609 0.06009174 0.10000000)
		(1.81005587 0.03804939 0.10000000)
		(1.82681564 0.01569938 0.10000000)
		(1.84357542 -0.00677758 0.10000000)
		(1.86033520 -0.02919974 0.10000000)
		(1.87709497 -0.05138578 0.10000000)
		(1.89385475 -0.07315632 0.10000000)
		(1.91061453 -0.09433532 0.10000000)
		(1.92737430 -0.11475152 0.10000000)
		(1.94413408 -0.13423985 0.10000000)
		(1.96089385 -0.15264271 0.10000000)
		(1.97765363 -0.16981130 0.10000000)
		(1.99441341 -0.18560679 0.10000000)
		(2.01117318 -0.19990147 0.10000000)
		(2.02793296 -0.21257975 0.10000000)
		(2.04469274 -0.22353911 0.10000000)
		(2.06145251 -0.23269093 0.10000000)
		(2.07821229 -0.23996122 0.10000000)
		(2.09497207 -0.24529117 0.10000000)
		(2.11173184 -0.24863771 0.10000000)
		(2.12849162 -0.24997375 0.10000000)
		(2.14525140 -0.24928852 0.10000000)
		(2.16201117 -0.24658753 0.10000000)
		(2.17877095 -0.24189264 0.10000000)
		(2.19553073 -0.23524181 0.10000000)
		(2.21229050 -0.22668881 0.10000000)
		(2.22905028 -0.21630280 0.10000000)
		(2.24581006 -0.20416777 0.10000000)
		(2.26256983 -0.19038184 0.10000000)
		(2.27932961 -0.17505649 0.10000000)
		(2.29608939 -0.15831562 0.10000000)
		(2.31284916 -0.14029462 0.10000000)
		(2.32960894 -0.12113920 0.10000000)
		(2.34636872 -0.10100424 0.10000000)
		(2.36312849 -0.08005256 0.10000000)
		(2.37988827 -0.05845358 0.10000000)
		(2.39664804 -0.03638195 0.10000000)
		(2.41340782 -0.01401613 0.10000000)
		(2.43016760 0.00846303 0.10000000)
		(2.44692737 0.03087375 0.10000000)
		(2.46368715 0.05303483 0.10000000)
		(2.48044693 0.07476707 0.10000000)
		(2.49720670 0.09589474 0.10000000)
		(2.51396648 0.11624701 0.10000000)
		(2.53072626 0.13565930 0.10000000)
		(2.54748603 0.15397466 0.10000000)
		(2.56424581 0.17104497 0.10000000)
		(2.58100559 0.18673222 0.10000000)
		(2.59776536 0.20090955 0.10000000)
		(2.61452514 0.21346232 0.10000000)
		(2.63128492 0.22428904 0.10000000)
		(2.64804469 0.23330216 0.10000000)
		(2.66480447 0.24042880 0.10000000)
		(2.68156425 0.24561133 0.10000000)
		(2.69832402 0.24880784 0.10000000)
		(2.71508380 0.24999250 0.10000000)
		(2.73184358 0.24915572 0.10000000)
		(2.74860335 0.24630427 0.10000000)
		(2.76536313 0.24146120 0.10000000)
		(2.78212291 0.23466567 0.10000000)
		(2.79888268 0.22597264 0.10000000)
		(2.81564246 0.21545240 0.10000000)
		(2.83240223 0.20319000 0.10000000)
		(2.84916201 0.18928462 0.10000000)
		(2.86592179 0.17384867 0.10000000)
		(2.88268156 0.15700699 0.10000000)
		(2.89944134 0.13889575 0.10000000)
		(2.91620112 0.11966140 0.10000000)
		(2.93296089 0.09945947 0.10000000)
		(2.95166480 0.08290529 0.10000000)
		(2.97036872 0.06809366 0.10000000)
		(2.98907263 0.05502458 0.10000000)
		(3.00777654 0.04369804 0.10000000)
		(3.02648045 0.03411404 0.10000000)
		(3.04518436 0.02627259 0.10000000)
		(3.06388827 0.02017369 0.10000000)
		(3.08259218 0.01581733 0.10000000)
		(3.10129609 0.01320351 0.10000000)
		(3.12000000 0.01233224 0.10000000)
		(3.14000000 0.01233224 0.10000000)
		(3.16000000 0.01233224 0.10000000)
		(3.18000000 0.01233224 0.10000000)
		(3.20000000 0.01233224 0.10000000)
		(3.22000000 0.01233224 0.10000000)
		(3.24000000 0.01233224 0.10000000)
		(3.26000000 0.01233224 0.10000000)
		(3.28000000 0.01233224 0.10000000)
		(3.30000000 0.01233224 0.10000000)
		(3.32000000 0.01233224 0.10000000)
		(3.34000000 0.01233224 0.10000000)
		(3.36000000 0.01233224 0.10000000)
		(3.38000000 0.01233224 0.10000000)
		(3.40000000 0.01233224 0.10000000)
		(3.42000000 0.01233224 0.10000000)
		(3.44000000 0.01233224 0.10000000)
		(3.46000000 0.01233224 0.10000000)
		(3.48000000 0.01233224 0.10000000)
		(3.50000000 0.01233224 0.10000000)
		(3.52000000 0.01233224 0.10000000)
		(3.54000000 0.01233224 0.10000000)
		(3.56000000 0.01233224 0.10000000)
		(3.58000000 0.01233224 0.10000000)
		(3.60000000 0.01233224 0.10000000)
		(3.62000000 0.01233224 0.10000000)
		(3.64000000 0.01233224 0.10000000)
		(3.66000000 0.01233224 0.10000000)
		(3.68000000 0.01233224 0.10000000)
		(3.70000000 0.01233224 0.10000000)
		(3.72000000 0.01233224 0.10000000)
		(3.74000000 0.01233224 0.10000000)
		(3.76000000 0.01233224 0.10000000)
		(3.78000000 0.01233224 0.10000000)
		(3.80000000 0.01233224 0.10000000)
		(3.82000000 0.01233224 0.10000000)
		(3.84000000 0.01233224 0.10000000)
		(3.86000000 0.01233224 0.10000000)
		(3.88000000 0.01233224 0.10000000)
		(3.90000000 0.01233224 0.10000000)
		(3.92000000 0.01233224 0.10000000)
		(3.94000000 0.01233224 0.10000000)
		(3.96000000 0.01233224 0.10000000)
		(3.98000000 0.01233224 0.10000000)
		(4.00000000 0.01233224 0.10000000)
	)
	polyLine 3 2
	(
		(-1.00000000 0.39286332 0.00000000)
		(-0.98000000 0.39131963 0.00000000)
		(-0.96000000 0.38977594 0.00000000)
		(-0.94000000 0.38823225 0.00000000)
		(-0.92000000 0.38668856 0.00000000)
		(-0.90000000 0.38514487 0.00000000)
		(-0.88000000 0.38360118 0.00000000)
		(-0.86000000 0.38205749 0.00000000)
		(-0.84000000 0.38051380 0.00000000)
		(-0.82000000 0.37897011 0.00000000)
		(-0.80000000 0.37742642 0.00000000)
		(-0.78000000 0.37588273 0.00000000)
		(-0.76000000 0.37433904 0.00000000)
		(-0.74000000 0.37279535 0.00000000)
		(-0.72000000 0.37125166 0.00000000)
		(-0.70000000 0.36970797 0.00000000)
		(-0.68000000 0.36816428 0.00000000)
		(-0.66000000 0.36662059 0.00000000)
		(-0.64000000 0.36507690 0.00000000)
		(-0.62000000 0.36353321 0.00000000)
		(-0.60000000 0.36198952 0.00000000)
		(-0.58000000 0.36044583 0.00000000)
		(-0.56000000 0.35890214 0.00000000)
		(-0.54000000 0.35735845 0.00000000)
		(-0.52000000 0.35581476 0.00000000)
		(-0.50000000 0.35427107 0.00000000)
		(-0.48000000 0.35272739 0.00000000)
		(-0.46000000 0.35118370 0.00000000)
		(-0.44000000 0.34964001 0.00000000)
		(-0.42000000 0.34809632 0.00000000)
		(-0.40000000 0.34655263 0.00000000)
		(-0.38000000 0.34500894 0.00000000)
		(-0.36000000 0.34346525 0.00000000)
		(-0.34000000 0.34192156 0.00000000)
		(-0.32000000 0.34037787 0.00000000)
		(-0.30000000 0.33883418 0.00000000)
		(-0.28000000 0.33729049 0.00000000)
		(-0.26000000 0.33574680 0.00000000)
		(-0.24000000 0.33420311 0.00000000)
		(-0.22000000 0.33265942 0.00000000)
		(-0.20000000 0.33111573 0.00000000)
		(-0.18000000 0.32957204 0.00000000)
		(-0.16000000 0.32802835 0.00000000)
		(-0.14000000 0.32648466 0.00000000)
		(-0.12000000 0.32494097 0.00000000)
		(-0.10000000 0.32339728 0.00000000)
		(-0.08162011 0.32107508 0.00000000)
		(-0.06324022 0.32325862 0.00000000)
		(-0.04486034 0.32994791 0.00000000)
		(-0.02648045 0.34114295 0.00000000)
		(-0.00810056 0.35684373 0.00000000)
		(0.01027933 0.37705026 0.00000000)
		(0.02865922 0.40176253 0.00000000)
		(0.04703911 0.43098055 0.00000000)
		(0.06541899 0.46470432 0.00000000)
		(0.08379888 0.50293383 0.00000000)
		(0.10055866 0.54123457 0.00000000)
		(0.11731844 0.57920188 0.00000000)
		(0.13407821 0.61652878 0.00000000)
		(0.15083799 0.65291341 0.00000000)
		(0.16759777 0.68806160 0.00000000)
		(0.18435754 0.72168911 0.00000000)
		(0.20111732 0.75352405 0.00000000)
		(0.21787709 0.78330900 0.00000000)
		(0.23463687 0.81080310 0.00000000)
		(0.25139665 0.83578406 0.00000000)
		(0.26815642 0.85804986 0.00000000)
		(0.28491620 0.87742048 0.00000000)
		(0.30167598 0.89373927 0.00000000)
		(0.31843575 0.90687429 0.00000000)
		(0.33519553 0.91671932 0.00000000)
		(0.35195531 0.92319476 0.00000000)
		(0.36871508 0.92624825 0.00000000)
		(0.38547486 0.92585510 0.00000000)
		(0.40223464 0.92201848 0.00000000)
		(0.41899441 0.91476942 0.00000000)
		(0.43575419 0.90416654 0.00000000)
		(0.45251397 0.89029557 0.00000000)
		(0.46927374 0.87326867 0.00000000)
		(0.48603352 0.85322351 0.00000000)
		(0.50279330 0.83032220 0.00000000)
		(0.51955307 0.80474990 0.00000000)
		(0.53631285 0.77671339 0.00000000)
		(0.55307263 0.74643938 0.00000000)
		(0.56983240 0.71417266 0.00000000)
		(0.58659218 0.68017414 0.00000000)
		(0.60335196 0.64471873 0.00000000)
		(0.62011173 0.60809313 0.00000000)
		(0.63687151 0.57059348 0.00000000)
		(0.65363128 0.53252302 0.00000000)
		(0.67039106 0.49418957 0.00000000)
		(0.68715084 0.45590311 0.00000000)
		(0.70391061 0.41797322 0.00000000)
		(0.72067039 0.38070660 0.00000000)
		(0.73743017 0.34440458 0.00000000)
		(0.75418994 0.30936070 0.00000000)
		(0.77094972 0.27585834 0.00000000)
		(0.78770950 0.24416838 0.00000000)
		(0.80446927 0.21454708 0.00000000)
		(0.82122905 0.18723395 0.00000000)
		(0.83798883 0.16244984 0.00000000)
		(0.85474860 0.14039517 0.00000000)
		(0.87150838 0.12124826 0.00000000)
		(0.88826816 0.10516393 0.00000000)
		(0.90502793 0.09227225 0.00000000)
		(0.92178771 0.08267746 0.00000000)
		(0.93854749 0.07645713 0.00000000)
		(0.95530726 0.07366157 0.00000000)
		(0.97206704 0.07431338 0.00000000)
		(0.98882682 0.07840730 0.00000000)
		(1.00558659 0.08591021 0.00000000)
		(1.02234637 0.09676145 0.00000000)
		(1.03910615 0.11087328 0.00000000)
		(1.05586592 0.12813158 0.00000000)
		(1.07262570 0.14839682 0.00000000)
		(1.08938547 0.17150511 0.00000000)
		(1.10614525 0.19726962 0.00000000)
		(1.12290503 0.22548200 0.00000000)
		(1.13966480 0.25591413 0.00000000)
		(1.15642458 0.28831995 0.00000000)
		(1.17318436 0.32243740 0.00000000)
		(1.18994413 0.35799063 0.00000000)
		(1.20670391 0.39469214 0.00000000)
		(1.22346369 0.43224518 0.00000000)
		(1.24022346 0.47034608 0.00000000)
		(1.25698324 0.50868676 0.00000000)
		(1.27374302 0.54695720 0.00000000)
		(1.29050279 0.58484794 0.00000000)
		(1.30726257 0.62205261 0.00000000)
		(1.32402235 0.65827035 0.00000000)
		(1.34078212 0.69320833 0.00000000)
		(1.35754190 0.72658402 0.00000000)
		(1.37430168 0.75812755 0.00000000)
		(1.39106145 0.78758386 0.00000000)
		(1.40782123 0.81471477 0.00000000)
		(1.42458101 0.83930090 0.00000000)
		(1.44134078 0.86114344 0.00000000)
		(1.45810056 0.88006578 0.00000000)
		(1.47486034 0.89591490 0.00000000)
		(1.49162011 0.90856266 0.00000000)
		(1.50837989 0.91790678 0.00000000)
		(1.52513966 0.92387171 0.00000000)
		(1.54189944 0.92640921 0.00000000)
		(1.55865922 0.92549877 0.00000000)
		(1.57541899 0.92114774 0.00000000)
		(1.59217877 0.91339132 0.00000000)
		(1.60893855 0.90229221 0.00000000)
		(1.62569832 0.88794017 0.00000000)
		(1.64245810 0.87045125 0.00000000)
		(1.65921788 0.84996685 0.00000000)
		(1.67597765 0.82665263 0.00000000)
		(1.69273743 0.80069709 0.00000000)
		(1.70949721 0.77231012 0.00000000)
		(1.72625698 0.74172125 0.00000000)
		(1.74301676 0.70917782 0.00000000)
		(1.75977654 0.67494298 0.00000000)
		(1.77653631 0.63929355 0.00000000)
		(1.79329609 0.60251779 0.00000000)
		(1.81005587 0.56491308 0.00000000)
		(1.82681564 0.52678348 0.00000000)
		(1.84357542 0.48843730 0.00000000)
		(1.86033520 0.45018462 0.00000000)
		(1.87709497 0.41233475 0.00000000)
		(1.89385475 0.37519374 0.00000000)
		(1.91061453 0.33906192 0.00000000)
		(1.92737430 0.30423144 0.00000000)
		(1.94413408 0.27098394 0.00000000)
		(1.96089385 0.23958827 0.00000000)
		(1.97765363 0.21029828 0.00000000)
		(1.99441341 0.18335082 0.00000000)
		(2.01117318 0.15896379 0.00000000)
		(2.02793296 0.13733438 0.00000000)
		(2.04469274 0.11863748 0.00000000)
		(2.06145251 0.10302427 0.00000000)
		(2.07821229 0.09062101 0.00000000)
		(2.09497207 0.08152799 0.00000000)
		(2.11173184 0.07581873 0.00000000)
		(2.12849162 0.07353941 0.00000000)
		(2.14525140 0.07470844 0.00000000)
		(2.16201117 0.07931638 0.00000000)
		(2.17877095 0.08732596 0.00000000)
		(2.19553073 0.09867243 0.00000000)
		(2.21229050 0.11326403 0.00000000)
		(2.22905028 0.13098278 0.00000000)
		(2.24581006 0.15168540 0.00000000)
		(2.26256983 0.17520449 0.00000000)
		(2.27932961 0.20134987 0.00000000)
		(2.29608939 0.22991014 0.00000000)
		(2.31284916 0.26065436 0.00000000)
		(2.32960894 0.29333393 0.00000000)
		(2.34636872 0.32768460 0.00000000)
		(2.36312849 0.36342861 0.00000000)
		(2.37988827 0.40027693 0.00000000)
		(2.39664804 0.43793162 0.00000000)
		(2.41340782 0.47608819 0.00000000)
		(2.43016760 0.51443811 0.00000000)
		(2.44692737 0.55267129 0.00000000)
		(2.46368715 0.59047856 0.00000000)
		(2.48044693 0.62755423 0.00000000)
		(2.49720670 0.66359849 0.00000000)
		(2.51396648 0.69831990 0.00000000)
		(2.53072626 0.73143769 0.00000000)