/*--------------------------------*- C++ -*----------------------------------*\\
/*--------------------------------*- C++ -*----------------------------------*\\
| =========                 |                                                 |
| \\\\      /  F ield         | OpenFOAM: The Open Source CFD Toolbox           |
|  \\\\    /   O peration     | Version:  v2012                                 |
|   \\\\  /    A nd           | Website:  www.openfoam.com                      |
|    \\\\/     M anipulation  |                                                 |
\\*---------------------------------------------------------------------------*/
FoamFile
{
    version     2.0;
    format      ascii;
    class       dictionary;
    object      blockMeshDict;
}
// * * * * * * * * * * * * * * * * * * * * * * * * * * * * * * * * * * * * * //

scale   0.01;

xmin -1;
xmax 5;
ymin 0;
ymax 0.5;
zmin 0;
zmax 0.1;

vertices
(
    (-1.00000000 -0.18151061 0.00000000)
    (4.00000000 -0.22957650 0.00000000)
    (4.00000000 0.27042350 0.00000000)
    (-1.00000000 0.31848939 0.00000000)
    (-1.00000000 -0.18151061 0.10000000)
    (4.00000000 -0.22957650 0.10000000)
    (4.00000000 0.27042350 0.10000000)
    (-1.00000000 0.31848939 0.10000000)
);

blocks
(
    hex (0 1 2 3 4 5 6 7) (200 20 1) simpleGrading (1 1 1)
);

edges
(
	polyLine 0 1
	(
		(-1.00000000 -0.18151061 0.00000000)
		(-0.98000000 -0.18151061 0.00000000)
		(-0.96000000 -0.18151061 0.00000000)
		(-0.94000000 -0.18151061 0.00000000)
		(-0.92000000 -0.18151061 0.00000000)
		(-0.90000000 -0.18151061 0.00000000)
		(-0.88000000 -0.18151061 0.00000000)
		(-0.86000000 -0.18151061 0.00000000)
		(-0.84000000 -0.18151061 0.00000000)
		(-0.82000000 -0.18151061 0.00000000)
		(-0.80000000 -0.18151061 0.00000000)
		(-0.78000000 -0.18151061 0.00000000)
		(-0.76000000 -0.18151061 0.00000000)
		(-0.74000000 -0.18151061 0.00000000)
		(-0.72000000 -0.18151061 0.00000000)
		(-0.70000000 -0.18151061 0.00000000)
		(-0.68000000 -0.18151061 0.00000000)
		(-0.66000000 -0.18151061 0.00000000)
		(-0.64000000 -0.18151061 0.00000000)
		(-0.62000000 -0.18151061 0.00000000)
		(-0.60000000 -0.18151061 0.00000000)
		(-0.58000000 -0.18151061 0.00000000)
		(-0.56000000 -0.18151061 0.00000000)
		(-0.54000000 -0.18151061 0.00000000)
		(-0.52000000 -0.18151061 0.00000000)
		(-0.50000000 -0.18151061 0.00000000)
		(-0.48000000 -0.18151061 0.00000000)
		(-0.46000000 -0.18151061 0.00000000)
		(-0.44000000 -0.18151061 0.00000000)
		(-0.42000000 -0.18151061 0.00000000)
		(-0.40000000 -0.18151061 0.00000000)
		(-0.38000000 -0.18151061 0.00000000)
		(-0.36000000 -0.18151061 0.00000000)
		(-0.34000000 -0.18151061 0.00000000)
		(-0.32000000 -0.18151061 0.00000000)
		(-0.30000000 -0.18151061 0.00000000)
		(-0.28000000 -0.18151061 0.00000000)
		(-0.26000000 -0.18151061 0.00000000)
		(-0.24000000 -0.18151061 0.00000000)
		(-0.22000000 -0.18151061 0.00000000)
		(-0.20000000 -0.18151061 0.00000000)
		(-0.18000000 -0.18151061 0.00000000)
		(-0.16000000 -0.18151061 0.00000000)
		(-0.14000000 -0.18151061 0.00000000)
		(-0.12000000 -0.18151061 0.00000000)
		(-0.10000000 -0.18151061 0.00000000)
		(-0.08162011 -0.18200066 0.00000000)
		(-0.06324022 -0.18347081 0.00000000)
		(-0.04486034 -0.18592106 0.00000000)
		(-0.02648045 -0.18935141 0.00000000)
		(-0.00810056 -0.19376186 0.00000000)
		(0.01027933 -0.19915241 0.00000000)
		(0.02865922 -0.20552306 0.00000000)
		(0.04703911 -0.21287382 0.00000000)
		(0.06541899 -0.22120467 0.00000000)
		(0.08379888 -0.23051562 0.00000000)
		(0.10055866 -0.23689232 0.00000000)
		(0.11731844 -0.24203585 0.00000000)
		(0.13407821 -0.24591945 0.00000000)
		(0.15083799 -0.24852289 0.00000000)
		(0.16759777 -0.24983263 0.00000000)
		(0.18435754 -0.24984185 0.00000000)
		(0.20111732 -0.24855049 0.00000000)
		(0.21787709 -0.24596528 0.00000000)
		(0.23463687 -0.24209968 0.00000000)
		(0.25139665 -0.23697381 0.00000000)
		(0.26815642 -0.23061436 0.00000000)
		(0.28491620 -0.22305442 0.00000000)
		(0.30167598 -0.21433335 0.00000000)
		(0.31843575 -0.20449656 0.00000000)
		(0.33519553 -0.19359524 0.00000000)
		(0.35195531 -0.18168615 0.00000000)
		(0.36871508 -0.16883127 0.00000000)
		(0.38547486 -0.15509753 0.00000000)
		(0.40223464 -0.14055642 0.00000000)
		(0.41899441 -0.12528363 0.00000000)
		(0.43575419 -0.10935866 0.00000000)
		(0.45251397 -0.09286442 0.00000000)
		(0.46927374 -0.07588677 0.00000000)
		(0.48603352 -0.05851408 0.00000000)
		(0.50279330 -0.04083679 0.00000000)
		(0.51955307 -0.02294692 0.00000000)
		(0.53631285 -0.00493760 0.00000000)
		(0.55307263 0.01309742 0.00000000)
		(0.56983240 0.03106426 0.00000000)
		(0.58659218 0.04886940 0.00000000)
		(0.60335196 0.06642014 0.00000000)
		(0.62011173 0.08362513 0.00000000)
		(0.63687151 0.10039480 0.00000000)
		(0.65363128 0.11664185 0.00000000)
		(0.67039106 0.13228172 0.00000000)
		(0.68715084 0.14723299 0.00000000)
		(0.70391061 0.16141782 0.00000000)
		(0.72067039 0.17476237 0.00000000)
		(0.73743017 0.18719719 0.00000000)
		(0.75418994 0.19865754 0.00000000)
		(0.77094972 0.20908376 0.00000000)
		(0.78770950 0.21842158 0.00000000)
		(0.80446927 0.22662238 0.00000000)
		(0.82122905 0.23364349 0.00000000)
		(0.83798883 0.23944834 0.00000000)
		(0.85474860 0.24400673 0.00000000)
		(0.87150838 0.24729492 0.00000000)
		(0.88826816 0.24929579 0.00000000)
		(0.90502793 0.24999894 0.00000000)
		(0.92178771 0.24940070 0.00000000)
		(0.93854749 0.24750418 0.00000000)
		(0.95530726 0.24431926 0.00000000)
		(0.97206704 0.23986251 0.00000000)
		(0.98882682 0.23415715 0.00000000)
		(1.00558659 0.22723285 0.00000000)
		(1.02234637 0.21912568 0.00000000)
		(1.03910615 0.20987783 0.00000000)
		(1.05586592 0.19953745 0.00000000)
		(1.07262570 0.18815836 0.00000000)
		(1.08938547 0.17579979 0.00000000)
		(1.10614525 0.16252608 0.00000000)
		(1.12290503 0.14840634 0.00000000)
		(1.13966480 0.13351405 0.00000000)
		(1.15642458 0.11792674 0.00000000)
		(1.17318436 0.10172555 0.00000000)
		(1.18994413 0.08499483 0.00000000)
		(1.20670391 0.06782165 0.00000000)
		(1.22346369 0.05029543 0.00000000)
		(1.24022346 0.03250739 0.00000000)
		(1.25698324 0.01455012 0.00000000)
		(1.27374302 -0.00348288 0.00000000)
		(1.29050279 -0.02149775 0.00000000)
		(1.30726257 -0.03940072 0.00000000)
		(1.32402235 -0.05709858 0.00000000)
		(1.34078212 -0.07449921 0.00000000)
		(1.35754190 -0.09151202 0.00000000)
		(1.37430168 -0.10804847 0.00000000)
		(1.39106145 -0.12402246 0.00000000)
		(1.40782123 -0.13935084 0.00000000)
		(1.42458101 -0.15395382 0.00000000)
		(1.44134078 -0.16775538 0.00000000)
		(1.45810056 -0.18068367 0.00000000)
		(1.47486034 -0.19267140 0.00000000)
		(1.49162011 -0.20365617 0.00000000)
		(1.50837989 -0.21358079 0.00000000)
		(1.52513966 -0.22239359 0.00000000)
		(1.54189944 -0.23004871 0.00000000)
		(1.55865922 -0.23650629 0.00000000)
		(1.57541899 -0.24173271 0.00000000)
		(1.59217877 -0.24570078 0.00000000)
		(1.60893855 -0.24838983 0.00000000)
		(1.62569832 -0.24978587 0.00000000)
		(1.64245810 -0.24988163 0.00000000)
		(1.65921788 -0.24867661 0.00000000)
		(1.67597765 -0.24617708 0.00000000)
		(1.69273743 -0.24239606 0.00000000)
		(1.70949721 -0.23735323 0.00000000)
		(1.72625698 -0.23107483 0.00000000)
		(1.74301676 -0.22359356 0.00000000)
		(1.75977654 -0.21494835 0.00000000)
		(1.77653631 -0.20518421 0.00000000)
		(1.79329609 -0.19435197 0.00000000)
		(1.81005587 -0.18250801 0.00000000)
		(1.82681564 -0.16971399 0.00000000)
		(1.84357542 -0.15603651 0.00000000)
		(1.86033520 -0.14154678 0.00000000)
		(1.87709497 -0.12632020 0.00000000)
		(1.89385475 -0.11043606 0.00000000)
		(1.91061453 -0.09397704 0.00000000)
		(1.92737430 -0.07702881 0.00000000)
		(1.94413408 -0.05967960 0.00000000)
		(1.96089385 -0.04201972 0.00000000)
		(1.97765363 -0.02414110 0.00000000)
		(1.99441341 -0.00613682 0.00000000)
		(2.01117318 0.01189941 0.00000000)
		(2.02793296 0.02987369 0.00000000)
		(2.04469274 0.04769247 0.00000000)
		(2.06145251 0.06526298 0.00000000)
		(2.07821229 0.08249375 0.00000000)
		(2.09497207 0.09929510 0.00000000)
		(2.11173184 0.11557956 0.00000000)
		(2.12849162 0.13126236 0.00000000)
		(2.14525140 0.14626187 0.00000000)
		(2.16201117 0.16049999 0.00000000)
		(2.17877095 0.17390262 0.00000000)
		(2.19553073 0.18639999 0.00000000)
		(2.21229050 0.19792704 0.00000000)
		(2.22905028 0.20842376 0.00000000)
		(2.24581006 0.21783551 0.00000000)
		(2.26256983 0.22611331 0.00000000)
		(2.27932961 0.23321405 0.00000000)
		(2.29608939 0.23910078 0.00000000)
		(2.31284916 0.24374285 0.00000000)
		(2.32960894 0.24711609 0.00000000)
		(2.34636872 0.24920296 0.00000000)
		(2.36312849 0.24999257 0.00000000)
		(2.37988827 0.24948083 0.00000000)
		(2.39664804 0.24767040 0.00000000)
		(2.41340782 0.24457070 0.00000000)
		(2.43016760 0.24019787 0.00000000)
		(2.44692737 0.23457467 0.00000000)
		(2.46368715 0.22773037 0.00000000)
		(2.48044693 0.21970060 0.00000000)
		(2.49720670 0.21052716 0.00000000)
		(2.51396648 0.20025781 0.00000000)
		(2.53072626 0.18894600 0.00000000)
		(2.54748603 0.17665061 0.00000000)
		(2.56424581 0.16343566 0.00000000)
		(2.58100559 0.14936992 0.00000000)
		(2.59776536 0.13452663 0.00000000)
		(2.61452514 0.11898305 0.00000000)
		(2.63128492 0.10282010 0.00000000)
		(2.64804469 0.08612191 0.00000000)
		(2.66480447 0.06897540 0.00000000)
		(2.68156425 0.05146983 0.00000000)
		(2.69832402 0.03369634 0.00000000)
		(2.71508380 0.01574744 0.00000000)
		(2.73184358 -0.00228344 0.00000000)
		(2.74860335 -0.02030244 0.00000000)
		(2.76536313 -0.03821574 0.00000000)
		(2.78212291 -0.05593011 0.00000000)
		(2.79888268 -0.07335333 0.00000000)
		(2.81564246 -0.09039471 0.00000000)
		(2.83240223 -0.10696553 0.00000000)
		(2.84916201 -0.12297953 0.00000000)
		(2.86592179 -0.13835335 0.00000000)
		(2.88268156 -0.15300696 0.00000000)
		(2.89944134 -0.16686408 0.00000000)
		(2.91620112 -0.17985258 0.00000000)
		(2.93296089 -0.19190484 0.00000000)
		(2.95166480 -0.19906245 0.00000000)
		(2.97036872 -0.20546664 0.00000000)
		(2.98907263 -0.21111739 0.00000000)
		(3.00777654 -0.21601470 0.00000000)
		(3.02648045 -0.22015858 0.00000000)
		(3.04518436 -0.22354903 0.00000000)
		(3.06388827 -0.22618605 0.00000000)
		(3.08259218 -0.22806963 0.00000000)
		(3.10129609 -0.22919978 0.00000000)
		(3.12000000 -0.22957650 0.00000000)
		(3.14000000 -0.22957650 0.00000000)
		(3.16000000 -0.22957650 0.00000000)
		(3.18000000 -0.22957650 0.00000000)
		(3.20000000 -0.22957650 0.00000000)
		(3.22000000 -0.22957650 0.00000000)
		(3.24000000 -0.22957650 0.00000000)
		(3.26000000 -0.22957650 0.00000000)
		(3.28000000 -0.22957650 0.00000000)
		(3.30000000 -0.22957650 0.00000000)
		(3.32000000 -0.22957650 0.00000000)
		(3.34000000 -0.22957650 0.00000000)
		(3.36000000 -0.22957650 0.00000000)
		(3.38000000 -0.22957650 0.00000000)
		(3.40000000 -0.22957650 0.00000000)
		(3.42000000 -0.22957650 0.00000000)
		(3.44000000 -0.22957650 0.00000000)
		(3.46000000 -0.22957650 0.00000000)
		(3.48000000 -0.22957650 0.00000000)
		(3.50000000 -0.22957650 0.00000000)
		(3.52000000 -0.22957650 0.00000000)
		(3.54000000 -0.22957650 0.00000000)
		(3.56000000 -0.22957650 0.00000000)
		(3.58000000 -0.22957650 0.00000000)
		(3.60000000 -0.22957650 0.00000000)
		(3.62000000 -0.22957650 0.00000000)
		(3.64000000 -0.22957650 0.00000000)
		(3.66000000 -0.22957650 0.00000000)
		(3.68000000 -0.22957650 0.00000000)
		(3.70000000 -0.22957650 0.00000000)
		(3.72000000 -0.22957650 0.00000000)
		(3.74000000 -0.22957650 0.00000000)
		(3.76000000 -0.22957650 0.00000000)
		(3.78000000 -0.22957650 0.00000000)
		(3.80000000 -0.22957650 0.00000000)
		(3.82000000 -0.22957650 0.00000000)
		(3.84000000 -0.22957650 0.00000000)
		(3.86000000 -0.22957650 0.00000000)
		(3.88000000 -0.22957650 0.00000000)
		(3.90000000 -0.22957650 0.00000000)
		(3.92000000 -0.22957650 0.00000000)
		(3.94000000 -0.22957650 0.00000000)
		(3.96000000 -0.22957650 0.00000000)
		(3.98000000 -0.22957650 0.00000000)
		(4.00000000 -0.22957650 0.00000000)
	)
	polyLine 4 5
	(
		(-1.00000000 -0.18151061 0.10000000)
		(-0.98000000 -0.18151061 0.10000000)
		(-0.96000000 -0.18151061 0.10000000)
		(-0.94000000 -0.18151061 0.10000000)
		(-0.92000000 -0.18151061 0.10000000)
		(-0.90000000 -0.18151061 0.10000000)
		(-0.88000000 -0.18151061 0.10000000)
		(-0.86000000 -0.18151061 0.10000000)
		(-0.84000000 -0.18151061 0.10000000)
		(-0.82000000 -0.18151061 0.10000000)
		(-0.80000000 -0.18151061 0.10000000)
		(-0.78000000 -0.18151061 0.10000000)
		(-0.76000000 -0.18151061 0.10000000)
		(-0.74000000 -0.18151061 0.10000000)
		(-0.72000000 -0.18151061 0.10000000)
		(-0.70000000 -0.18151061 0.10000000)
		(-0.68000000 -0.18151061 0.10000000)
		(-0.66000000 -0.18151061 0.10000000)
		(-0.64000000 -0.18151061 0.10000000)
		(-0.62000000 -0.18151061 0.10000000)
		(-0.60000000 -0.18151061 0.10000000)
		(-0.58000000 -0.18151061 0.10000000)
		(-0.56000000 -0.18151061 0.10000000)
		(-0.54000000 -0.18151061 0.10000000)
		(-0.52000000 -0.18151061 0.10000000)
		(-0.50000000 -0.18151061 0.10000000)
		(-0.48000000 -0.18151061 0.10000000)
		(-0.46000000 -0.18151061 0.10000000)
		(-0.44000000 -0.18151061 0.10000000)
		(-0.42000000 -0.18151061 0.10000000)
		(-0.40000000 -0.18151061 0.10000000)
		(-0.38000000 -0.18151061 0.10000000)
		(-0.36000000 -0.18151061 0.10000000)
		(-0.34000000 -0.18151061 0.10000000)
		(-0.32000000 -0.18151061 0.10000000)
		(-0.30000000 -0.18151061 0.10000000)
		(-0.28000000 -0.18151061 0.10000000)
		(-0.26000000 -0.18151061 0.10000000)
		(-0.24000000 -0.18151061 0.10000000)
		(-0.22000000 -0.18151061 0.10000000)
		(-0.20000000 -0.18151061 0.10000000)
		(-0.18000000 -0.18151061 0.10000000)
		(-0.16000000 -0.18151061 0.10000000)
		(-0.14000000 -0.18151061 0.10000000)
		(-0.12000000 -0.18151061 0.10000000)
		(-0.10000000 -0.18151061 0.10000000)
		(-0.08162011 -0.18200066 0.10000000)
		(-0.06324022 -0.18347081 0.10000000)
		(-0.04486034 -0.18592106 0.10000000)
		(-0.02648045 -0.18935141 0.10000000)
		(-0.00810056 -0.19376186 0.10000000)
		(0.01027933 -0.19915241 0.10000000)
		(0.02865922 -0.20552306 0.10000000)
		(0.04703911 -0.21287382 0.10000000)
		(0.06541899 -0.22120467 0.10000000)
		(0.08379888 -0.23051562 0.10000000)
		(0.10055866 -0.23689232 0.10000000)
		(0.11731844 -0.24203585 0.10000000)
		(0.13407821 -0.24591945 0.10000000)
		(0.15083799 -0.24852289 0.10000000)
		(0.16759777 -0.24983263 0.10000000)
		(0.18435754 -0.24984185 0.10000000)
		(0.20111732 -0.24855049 0.10000000)
		(0.21787709 -0.24596528 0.10000000)
		(0.23463687 -0.24209968 0.10000000)
		(0.25139665 -0.23697381 0.10000000)
		(0.26815642 -0.23061436 0.10000000)
		(0.28491620 -0.22305442 0.10000000)
		(0.30167598 -0.21433335 0.10000000)
		(0.31843575 -0.20449656 0.10000000)
		(0.33519553 -0.19359524 0.10000000)
		(0.35195531 -0.18168615 0.10000000)
		(0.36871508 -0.16883127 0.10000000)
		(0.38547486 -0.15509753 0.10000000)
		(0.40223464 -0.14055642 0.10000000)
		(0.41899441 -0.12528363 0.10000000)
		(0.43575419 -0.10935866 0.10000000)
		(0.45251397 -0.09286442 0.10000000)
		(0.46927374 -0.07588677 0.10000000)
		(0.48603352 -0.05851408 0.10000000)
		(0.50279330 -0.04083679 0.10000000)
		(0.51955307 -0.02294692 0.10000000)
		(0.53631285 -0.00493760 0.10000000)
		(0.55307263 0.01309742 0.10000000)
		(0.56983240 0.03106426 0.10000000)
		(0.58659218 0.04886940 0.10000000)
		(0.60335196 0.06642014 0.10000000)
		(0.62011173 0.08362513 0.10000000)
		(0.63687151 0.10039480 0.10000000)
		(0.65363128 0.11664185 0.10000000)
		(0.67039106 0.13228172 0.10000000)
		(0.68715084 0.14723299 0.10000000)
		(0.70391061 0.16141782 0.10000000)
		(0.72067039 0.17476237 0.10000000)
		(0.73743017 0.18719719 0.10000000)
		(0.75418994 0.19865754 0.10000000)
		(0.77094972 0.20908376 0.10000000)
		(0.78770950 0.21842158 0.10000000)
		(0.80446927 0.22662238 0.10000000)
		(0.82122905 0.23364349 0.10000000)
		(0.83798883 0.23944834 0.10000000)
		(0.85474860 0.24400673 0.10000000)
		(0.87150838 0.24729492 0.10000000)
		(0.88826816 0.24929579 0.10000000)
		(0.90502793 0.24999894 0.10000000)
		(0.92178771 0.24940070 0.10000000)
		(0.93854749 0.24750418 0.10000000)
		(0.95530726 0.24431926 0.10000000)
		(0.97206704 0.23986251 0.10000000)
		(0.98882682 0.23415715 0.10000000)
		(1.00558659 0.22723285 0.10000000)
		(1.02234637 0.21912568 0.10000000)
		(1.03910615 0.20987783 0.10000000)
		(1.05586592 0.19953745 0.10000000)
		(1.07262570 0.18815836 0.10000000)
		(1.08938547 0.17579979 0.10000000)
		(1.10614525 0.16252608 0.10000000)
		(1.12290503 0.14840634 0.10000000)
		(1.13966480 0.13351405 0.10000000)
		(1.15642458 0.11792674 0.10000000)
		(1.17318436 0.10172555 0.10000000)
		(1.18994413 0.08499483 0.10000000)
		(1.20670391 0.06782165 0.10000000)
		(1.22346369 0.05029543 0.10000000)
		(1.24022346 0.03250739 0.10000000)
		(1.25698324 0.01455012 0.10000000)
		(1.27374302 -0.00348288 0.10000000)
		(1.29050279 -0.02149775 0.10000000)
		(1.30726257 -0.03940072 0.10000000)
		(1.32402235 -0.05709858 0.10000000)
		(1.34078212 -0.07449921 0.10000000)
		(1.35754190 -0.09151202 0.10000000)
		(1.37430168 -0.10804847 0.10000000)
		(1.39106145 -0.12402246 0.10000000)
		(1.40782123 -0.13935084 0.10000000)
		(1.42458101 -0.15395382 0.10000000)
		(1.44134078 -0.16775538 0.10000000)
		(1.45810056 -0.18068367 0.10000000)
		(1.47486034 -0.19267140 0.10000000)
		(1.49162011 -0.20365617 0.10000000)
		(1.50837989 -0.21358079 0.10000000)
		(1.52513966 -0.22239359 0.10000000)
		(1.54189944 -0.23004871 0.10000000)
		(1.55865922 -0.23650629 0.10000000)
		(1.57541899 -0.24173271 0.10000000)
		(1.59217877 -0.24570078 0.10000000)
		(1.60893855 -0.24838983 0.10000000)
		(1.62569832 -0.24978587 0.10000000)
		(1.64245810 -0.24988163 0.10000000)
		(1.65921788 -0.24867661 0.10000000)
		(1.67597765 -0.24617708 0.10000000)
		(1.69273743 -0.24239606 0.10000000)
		(1.70949721 -0.23735323 0.10000000)
		(1.72625698 -0.23107483 0.10000000)
		(1.74301676 -0.22359356 0.10000000)
		(1.75977654 -0.21494835 0.10000000)
		(1.77653631 -0.20518421 0.10000000)
		(1.79329609 -0.19435197 0.10000000)
		(1.81005587 -0.18250801 0.10000000)
		(1.82681564 -0.16971399 0.10000000)
		(1.84357542 -0.15603651 0.10000000)
		(1.86033520 -0.14154678 0.10000000)
		(1.87709497 -0.12632020 0.10000000)
		(1.89385475 -0.11043606 0.10000000)
		(1.91061453 -0.09397704 0.10000000)
		(1.92737430 -0.07702881 0.10000000)
		(1.94413408 -0.05967960 0.10000000)
		(1.96089385 -0.04201972 0.10000000)
		(1.97765363 -0.02414110 0.10000000)
		(1.99441341 -0.00613682 0.10000000)
		(2.01117318 0.01189941 0.10000000)
		(2.02793296 0.02987369 0.10000000)
		(2.04469274 0.04769247 0.10000000)
		(2.06145251 0.06526298 0.10000000)
		(2.07821229 0.08249375 0.10000000)
		(2.09497207 0.09929510 0.10000000)
		(2.11173184 0.11557956 0.10000000)
		(2.12849162 0.13126236 0.10000000)
		(2.14525140 0.14626187 0.10000000)
		(2.16201117 0.16049999 0.10000000)
		(2.17877095 0.17390262 0.10000000)
		(2.19553073 0.18639999 0.10000000)
		(2.21229050 0.19792704 0.10000000)
		(2.22905028 0.20842376 0.10000000)
		(2.24581006 0.21783551 0.10000000)
		(2.26256983 0.22611331 0.10000000)
		(2.27932961 0.23321405 0.10000000)
		(2.29608939 0.23910078 0.10000000)
		(2.31284916 0.24374285 0.10000000)
		(2.32960894 0.24711609 0.10000000)
		(2.34636872 0.24920296 0.10000000)
		(2.36312849 0.24999257 0.10000000)
		(2.37988827 0.24948083 0.10000000)
		(2.39664804 0.24767040 0.10000000)
		(2.41340782 0.24457070 0.10000000)
		(2.43016760 0.24019787 0.10000000)
		(2.44692737 0.23457467 0.10000000)
		(2.46368715 0.22773037 0.10000000)
		(2.48044693 0.21970060 0.10000000)
		(2.49720670 0.21052716 0.10000000)
		(2.51396648 0.20025781 0.10000000)
		(2.53072626 0.18894600 0.10000000)
		(2.54748603 0.17665061 0.10000000)
		(2.56424581 0.16343566 0.10000000)
		(2.58100559 0.14936992 0.10000000)
		(2.59776536 0.13452663 0.10000000)
		(2.61452514 0.11898305 0.10000000)
		(2.63128492 0.10282010 0.10000000)
		(2.64804469 0.08612191 0.10000000)
		(2.66480447 0.06897540 0.10000000)
		(2.68156425 0.05146983 0.10000000)
		(2.69832402 0.03369634 0.10000000)
		(2.71508380 0.01574744 0.10000000)
		(2.73184358 -0.00228344 0.10000000)
		(2.74860335 -0.02030244 0.10000000)
		(2.76536313 -0.03821574 0.10000000)
		(2.78212291 -0.05593011 0.10000000)
		(2.79888268 -0.07335333 0.10000000)
		(2.81564246 -0.09039471 0.10000000)
		(2.83240223 -0.10696553 0.10000000)
		(2.84916201 -0.12297953 0.10000000)
		(2.86592179 -0.13835335 0.10000000)
		(2.88268156 -0.15300696 0.10000000)
		(2.89944134 -0.16686408 0.10000000)
		(2.91620112 -0.17985258 0.10000000)
		(2.93296089 -0.19190484 0.10000000)
		(2.95166480 -0.19906245 0.10000000)
		(2.97036872 -0.20546664 0.10000000)
		(2.98907263 -0.21111739 0.10000000)
		(3.00777654 -0.21601470 0.10000000)
		(3.02648045 -0.22015858 0.10000000)
		(3.04518436 -0.22354903 0.10000000)
		(3.06388827 -0.22618605 0.10000000)
		(3.08259218 -0.22806963 0.10000000)
		(3.10129609 -0.22919978 0.10000000)
		(3.12000000 -0.22957650 0.10000000)
		(3.14000000 -0.22957650 0.10000000)
		(3.16000000 -0.22957650 0.10000000)
		(3.18000000 -0.22957650 0.10000000)
		(3.20000000 -0.22957650 0.10000000)
		(3.22000000 -0.22957650 0.10000000)
		(3.24000000 -0.22957650 0.10000000)
		(3.26000000 -0.22957650 0.10000000)
		(3.28000000 -0.22957650 0.10000000)
		(3.30000000 -0.22957650 0.10000000)
		(3.32000000 -0.22957650 0.10000000)
		(3.34000000 -0.22957650 0.10000000)
		(3.36000000 -0.22957650 0.10000000)
		(3.38000000 -0.22957650 0.10000000)
		(3.40000000 -0.22957650 0.10000000)
		(3.42000000 -0.22957650 0.10000000)
		(3.44000000 -0.22957650 0.10000000)
		(3.46000000 -0.22957650 0.10000000)
		(3.48000000 -0.22957650 0.10000000)
		(3.50000000 -0.22957650 0.10000000)
		(3.52000000 -0.22957650 0.10000000)
		(3.54000000 -0.22957650 0.10000000)
		(3.56000000 -0.22957650 0.10000000)
		(3.58000000 -0.22957650 0.10000000)
		(3.60000000 -0.22957650 0.10000000)
		(3.62000000 -0.22957650 0.10000000)
		(3.64000000 -0.22957650 0.10000000)
		(3.66000000 -0.22957650 0.10000000)
		(3.68000000 -0.22957650 0.10000000)
		(3.70000000 -0.22957650 0.10000000)
		(3.72000000 -0.22957650 0.10000000)
		(3.74000000 -0.22957650 0.10000000)
		(3.76000000 -0.22957650 0.10000000)
		(3.78000000 -0.22957650 0.10000000)
		(3.80000000 -0.22957650 0.10000000)
		(3.82000000 -0.22957650 0.10000000)
		(3.84000000 -0.22957650 0.10000000)
		(3.86000000 -0.22957650 0.10000000)
		(3.88000000 -0.22957650 0.10000000)
		(3.90000000 -0.22957650 0.10000000)
		(3.92000000 -0.22957650 0.10000000)
		(3.94000000 -0.22957650 0.10000000)
		(3.96000000 -0.22957650 0.10000000)
		(3.98000000 -0.22957650 0.10000000)
		(4.00000000 -0.22957650 0.10000000)
	)
	polyLine 3 2
	(
		(-1.00000000 0.31848939 0.00000000)
		(-0.98000000 0.31541740 0.00000000)
		(-0.96000000 0.31234540 0.00000000)
		(-0.94000000 0.30927341 0.00000000)
		(-0.92000000 0.30620141 0.00000000)
		(-0.90000000 0.30312942 0.00000000)
		(-0.88000000 0.30005742 0.00000000)
		(-0.86000000 0.29698543 0.00000000)
		(-0.84000000 0.29391343 0.00000000)
		(-0.82000000 0.29084144 0.00000000)
		(-0.80000000 0.28776944 0.00000000)
		(-0.78000000 0.28469745 0.00000000)
		(-0.76000000 0.28162545 0.00000000)
		(-0.74000000 0.27855346 0.00000000)
		(-0.72000000 0.27548146 0.00000000)
		(-0.70000000 0.27240947 0.00000000)
		(-0.68000000 0.26933747 0.00000000)
		(-0.66000000 0.26626548 0.00000000)
		(-0.64000000 0.26319349 0.00000000)
		(-0.62000000 0.26012149 0.00000000)
		(-0.60000000 0.25704950 0.00000000)
		(-0.58000000 0.25397750 0.00000000)
		(-0.56000000 0.25090551 0.00000000)
		(-0.54000000 0.24783351 0.00000000)
		(-0.52000000 0.24476152 0.00000000)
		(-0.50000000 0.24168952 0.00000000)
		(-0.48000000 0.23861753 0.00000000)
		(-0.46000000 0.23554553 0.00000000)
		(-0.44000000 0.23247354 0.00000000)
		(-0.42000000 0.22940154 0.00000000)
		(-0.40000000 0.22632955 0.00000000)
		(-0.38000000 0.22325755 0.00000000)
		(-0.36000000 0.22018556 0.00000000)
		(-0.34000000 0.21711356 0.00000000)
		(-0.32000000 0.21404157 0.00000000)
		(-0.30000000 0.21096957 0.00000000)
		(-0.28000000 0.20789758 0.00000000)
		(-0.26000000 0.20482558 0.00000000)
		(-0.24000000 0.20175359 0.00000000)
		(-0.22000000 0.19868159 0.00000000)
		(-0.20000000 0.19560960 0.00000000)
		(-0.18000000 0.19253760 0.00000000)
		(-0.16000000 0.18946561 0.00000000)
		(-0.14000000 0.18639361 0.00000000)
		(-0.12000000 0.18332162 0.00000000)
		(-0.10000000 0.18024962 0.00000000)
		(-0.08162011 0.17870293 0.00000000)
		(-0.06324022 0.17523477 0.00000000)
		(-0.04486034 0.16984514 0.00000000)
		(-0.02648045 0.16253404 0.00000000)
		(-0.00810056 0.15330146 0.00000000)
		(0.01027933 0.14214741 0.00000000)
		(0.02865922 0.12907189 0.00000000)
		(0.04703911 0.11407490 0.00000000)
		(0.06541899 0.09715643 0.00000000)
		(0.08379888 0.07831649 0.00000000)
		(0.10055866 0.06665157 0.00000000)
		(0.11731844 0.05724247 0.00000000)
		(0.13407821 0.05013818 0.00000000)
		(0.15083799 0.04537569 0.00000000)
		(0.16759777 0.04297978 0.00000000)
		(0.18435754 0.04296292 0.00000000)
		(0.20111732 0.04532521 0.00000000)
		(0.21787709 0.05005434 0.00000000)
		(0.23463687 0.05712571 0.00000000)
		(0.25139665 0.06650249 0.00000000)
		(0.26815642 0.07813588 0.00000000)
		(0.28491620 0.09196531 0.00000000)
		(0.30167598 0.10791880 0.00000000)
		(0.31843575 0.12591331 0.00000000)
		(0.33519553 0.14585515 0.00000000)
		(0.35195531 0.16764052 0.00000000)
		(0.36871508 0.19115602 0.00000000)
		(0.38547486 0.21627923 0.00000000)
		(0.40223464 0.24287937 0.00000000)
		(0.41899441 0.27081797 0.00000000)
		(0.43575419 0.29994960 0.00000000)
		(0.45251397 0.33012260 0.00000000)
		(0.46927374 0.36117992 0.00000000)
		(0.48603352 0.39295987 0.00000000)
		(0.50279330 0.42529704 0.00000000)
		(0.51955307 0.45802307 0.00000000)
		(0.53631285 0.49096762 0.00000000)
		(0.55307263 0.52395919 0.00000000)
		(0.56983240 0.55682603 0.00000000)
		(0.58659218 0.58939707 0.00000000)
		(0.60335196 0.62150273 0.00000000)
		(0.62011173 0.65297591 0.00000000)
		(0.63687151 0.68365276 0.00000000)
		(0.65363128 0.71337359 0.00000000)
		(0.67039106 0.74198369 0.00000000)
		(0.68715084 0.76933412 0.00000000)
		(0.70391061 0.79528251 0.00000000)
		(0.72067039 0.81969378 0.00000000)
		(0.73743017 0.84244086 0.00000000)
		(0.75418994 0.86340534 0.00000000)
		(0.77094972 0.88247808 0.00000000)
		(0.78770950 0.89955980 0.00000000)
		(0.80446927 0.91456158 0.00000000)
		(0.82122905 0.92740533 0.00000000)
		(0.83798883 0.93802418 0.00000000)
		(0.85474860 0.94636286 0.00000000)
		(0.87150838 0.95237797 0.00000000)
		(0.88826816 0.95603818 0.00000000)
		(0.90502793 0.95732445 0.00000000)
		(0.92178771 0.95623008 0.00000000)
		(0.93854749 0.95276077 0.00000000)
		(0.95530726 0.94693458 0.00000000)
		(0.97206704 0.93878183 0.00000000)
		(0.98882682 0.92834497 0.00000000)
		(1.00558659 0.91567832 0.00000000)
		(1.02234637 0.90084783 0.00000000)
		(1.03910615 0.88393069 0.00000000)
		(1.05586592 0.86501496 0.00000000)
		(1.07262570 0.84419913 0.00000000)
		(1.08938547 0.82159153 0.00000000)
		(1.10614525 0.79730987 0.00000000)
		(1.12290503 0.77148053 0.00000000)
		(1.13966480 0.74423798 0.00000000)
		(1.15642458 0.71572403 0.00000000)
		(1.17318436 0.68608712 0.00000000)
		(1.18994413 0.65548151 0.00000000)
		(1.20670391 0.62406652 0.00000000)
		(1.22346369 0.59200570 0.00000000)
		(1.24022346 0.55946594 0.00000000)
		(1.25698324 0.52661662 0.00000000)
		(1.27374302 0.49362875 0.00000000)
		(1.29050279 0.46067404 0.00000000)
		(1.30726257 0.42792405 0.00000000)
		(1.32402235 0.39554926 0.00000000)
		(1.34078212 0.36371819 0.00000000)
		(1.35754190 0.33259655 0.00000000)
		(1.37430168 0.30234634 0.00000000)
		(1.39106145 0.27312503 0.00000000)
		(1.40782123 0.24508474 0.00000000)
		(1.42458101 0.21837143 0.00000000)
		(1.44134078 0.19312416 0.00000000)
		(1.45810056 0.16947435 0.00000000)
		(1.47486034 0.14754513 0.00000000)
		(1.49162011 0.12745064 0.00000000)
		(1.50837989 0.10929548 0.00000000)
		(1.52513966 0.09317417 0.00000000)
		(1.54189944 0.07917062 0.00000000)
		(1.55865922 0.06735774 0.00000000)
		(1.57541899 0.05779700 0.00000000)
		(1.59217877 0.05053820 0.00000000)
		(1.60893855 0.04561910 0.00000000)
		(1.62569832 0.04306532 0.00000000)
		(1.64245810 0.04289014 0.00000000)
		(1.65921788 0.04509450 0.00000000)
		(1.67597765 0.04966689 0.00000000)
		(1.69273743 0.05658354 0.00000000)
		(1.70949721 0.06580842 0.00000000)
		(1.72625698 0.07729353 0.00000000)
		(1.74301676 0.09097906 0.00000000)
		(1.75977654 0.10679379 0.00000000)
		(1.77653631 0.12465539 0.00000000)
		(1.79329609 0.14447087 0.00000000)
		(1.81005587 0.16613708 0.00000000)
		(1.82681564 0.18954125 0.00000000)
		(1.84357542 0.21456154 0.00000000)
		(1.86033520 0.24106770 0.00000000)
		(1.87709497 0.26892175 0.00000000)
		(1.89385475 0.29797870 0.00000000)
		(1.91061453 0.32808728 0.00000000)
		(1.92737430 0.35909078 0.00000000)
		(1.94413408 0.39082778 0.00000000)
		(1.96089385 0.42313310 0.00000000)
		(1.97765363 0.45583854 0.00000000)
		(1.99441341 0.48877388 0.00000000)
		(2.01117318 0.52176765 0.00000000)
		(2.02793296 0.55464811 0.00000000)
		(2.04469274 0.58724410 0.00000000)
		(2.06145251 0.61938592 0.00000000)
		(2.07821229 0.65090628 0.00000000)
		(2.09497207 0.68164108 0.00000000)
		(2.11173184 0.71143033 0.00000000)
		(2.12849162 0.74011897 0.00000000)
		(2.14525140 0.76755764 0.00000000)
		(2.16201117 0.79360353 0.00000000)
		(2.17877095 0.81812103 0.00000000)
		(2.19553073 0.84098254 0.00000000)
		(2.21229050 0.86206903 0.00000000)
		(2.22905028 0.88127074 0.00000000)
		(2.24581006 0.89848771 0.00000000)
		(2.26256983 0.91363032 0.00000000)
		(2.27932961 0.92661975 0.00000000)
		(2.29608939 0.93738838 0.00000000)
		(2.31284916 0.94588014 0.00000000)
		(2.32960894 0.95205084 0.00000000)
		(2.34636872 0.95586835 0.00000000)
		(2.36312849 0.95731280 0.00000000)
		(2.37988827 0.95637668 0.00000000)
		(2.39664804 0.95306484 0.00000000)
		(2.41340782 0.94739454 0.00000000)
		(2.43016760 0.93939530 0.00000000)
		(2.44692737 0.92910874 0.00000000)
		(2.46368715 0.91658843 0.00000000)