/*--------------------------------*- C++ -*----------------------------------*\\
/*--------------------------------*- C++ -*----------------------------------*\\
| =========                 |                                                 |
| \\\\      /  F ield         | OpenFOAM: The Open Source CFD Toolbox           |
|  \\\\    /   O peration     | Version:  v2012                                 |
|   \\\\  /    A nd           | Website:  www.openfoam.com                      |
|    \\\\/     M anipulation  |                                                 |
\\*---------------------------------------------------------------------------*/
FoamFile
{
    version     2.0;
    format      ascii;
    class       dictionary;
    object      blockMeshDict;
}
// * * * * * * * * * * * * * * * * * * * * * * * * * * * * * * * * * * * * * //

scale   0.01;

xmin -1;
xmax 5;
ymin 0;
ymax 0.5;
zmin 0;
zmax 0.1;

vertices
(
    (-1.00000000 0.24997345 0.00000000)
    (4.00000000 0.21583725 0.00000000)
    (4.00000000 0.71583725 0.00000000)
    (-1.00000000 0.74997345 0.00000000)
    (-1.00000000 0.24997345 0.10000000)
    (4.00000000 0.21583725 0.10000000)
    (4.00000000 0.71583725 0.10000000)
    (-1.00000000 0.74997345 0.10000000)
);

blocks
(
    hex (0 1 2 3 4 5 6 7) (200 20 1) simpleGrading (1 1 1)
);

edges
(
	polyLine 0 1
	(
		(-1.00000000 0.24997345 0.00000000)
		(-0.98000000 0.24997345 0.00000000)
		(-0.96000000 0.24997345 0.00000000)
		(-0.94000000 0.24997345 0.00000000)
		(-0.92000000 0.24997345 0.00000000)
		(-0.90000000 0.24997345 0.00000000)
		(-0.88000000 0.24997345 0.00000000)
		(-0.86000000 0.24997345 0.00000000)
		(-0.84000000 0.24997345 0.00000000)
		(-0.82000000 0.24997345 0.00000000)
		(-0.80000000 0.24997345 0.00000000)
		(-0.78000000 0.24997345 0.00000000)
		(-0.76000000 0.24997345 0.00000000)
		(-0.74000000 0.24997345 0.00000000)
		(-0.72000000 0.24997345 0.00000000)
		(-0.70000000 0.24997345 0.00000000)
		(-0.68000000 0.24997345 0.00000000)
		(-0.66000000 0.24997345 0.00000000)
		(-0.64000000 0.24997345 0.00000000)
		(-0.62000000 0.24997345 0.00000000)
		(-0.60000000 0.24997345 0.00000000)
		(-0.58000000 0.24997345 0.00000000)
		(-0.56000000 0.24997345 0.00000000)
		(-0.54000000 0.24997345 0.00000000)
		(-0.52000000 0.24997345 0.00000000)
		(-0.50000000 0.24997345 0.00000000)
		(-0.48000000 0.24997345 0.00000000)
		(-0.46000000 0.24997345 0.00000000)
		(-0.44000000 0.24997345 0.00000000)
		(-0.42000000 0.24997345 0.00000000)
		(-0.40000000 0.24997345 0.00000000)
		(-0.38000000 0.24997345 0.00000000)
		(-0.36000000 0.24997345 0.00000000)
		(-0.34000000 0.24997345 0.00000000)
		(-0.32000000 0.24997345 0.00000000)
		(-0.30000000 0.24997345 0.00000000)
		(-0.28000000 0.24997345 0.00000000)
		(-0.26000000 0.24997345 0.00000000)
		(-0.24000000 0.24997345 0.00000000)
		(-0.22000000 0.24997345 0.00000000)
		(-0.20000000 0.24997345 0.00000000)
		(-0.18000000 0.24997345 0.00000000)
		(-0.16000000 0.24997345 0.00000000)
		(-0.14000000 0.24997345 0.00000000)
		(-0.12000000 0.24997345 0.00000000)
		(-0.10000000 0.24997345 0.00000000)
		(-0.08162011 0.24982179 0.00000000)
		(-0.06324022 0.24936683 0.00000000)
		(-0.04486034 0.24860856 0.00000000)
		(-0.02648045 0.24754699 0.00000000)
		(-0.00810056 0.24618210 0.00000000)
		(0.01027933 0.24451391 0.00000000)
		(0.02865922 0.24254241 0.00000000)
		(0.04703911 0.24026760 0.00000000)
		(0.06541899 0.23768949 0.00000000)
		(0.08379888 0.23480807 0.00000000)
		(0.10055866 0.22851865 0.00000000)
		(0.11731844 0.22119868 0.00000000)
		(0.13407821 0.21288117 0.00000000)
		(0.15083799 0.20360363 0.00000000)
		(0.16759777 0.19340791 0.00000000)
		(0.18435754 0.18233997 0.00000000)
		(0.20111732 0.17044974 0.00000000)
		(0.21787709 0.15779083 0.00000000)
		(0.23463687 0.14442033 0.00000000)
		(0.25139665 0.13039854 0.00000000)
		(0.26815642 0.11578870 0.00000000)
		(0.28491620 0.10065668 0.00000000)
		(0.30167598 0.08507073 0.00000000)
		(0.31843575 0.06910114 0.00000000)
		(0.33519553 0.05281993 0.00000000)
		(0.35195531 0.03630051 0.00000000)
		(0.36871508 0.01961739 0.00000000)
		(0.38547486 0.00284580 0.00000000)
		(0.40223464 -0.01393862 0.00000000)
		(0.41899441 -0.03066019 0.00000000)
		(0.43575419 -0.04724348 0.00000000)
		(0.45251397 -0.06361372 0.00000000)
		(0.46927374 -0.07969709 0.00000000)
		(0.48603352 -0.09542104 0.00000000)
		(0.50279330 -0.11071468 0.00000000)
		(0.51955307 -0.12550902 0.00000000)
		(0.53631285 -0.13973736 0.00000000)
		(0.55307263 -0.15333553 0.00000000)
		(0.56983240 -0.16624220 0.00000000)
		(0.58659218 -0.17839917 0.00000000)
		(0.60335196 -0.18975162 0.00000000)
		(0.62011173 -0.20024834 0.00000000)
		(0.63687151 -0.20984200 0.00000000)
		(0.65363128 -0.21848935 0.00000000)
		(0.67039106 -0.22615137 0.00000000)
		(0.68715084 -0.23279352 0.00000000)
		(0.70391061 -0.23838584 0.00000000)
		(0.72067039 -0.24290312 0.00000000)
		(0.73743017 -0.24632497 0.00000000)
		(0.75418994 -0.24863598 0.00000000)
		(0.77094972 -0.24982572 0.00000000)
		(0.78770950 -0.24988882 0.00000000)
		(0.80446927 -0.24882500 0.00000000)
		(0.82122905 -0.24663905 0.00000000)
		(0.83798883 -0.24334084 0.00000000)
		(0.85474860 -0.23894523 0.00000000)
		(0.87150838 -0.23347206 0.00000000)
		(0.88826816 -0.22694600 0.00000000)
		(0.90502793 -0.21939648 0.00000000)
		(0.92178771 -0.21085755 0.00000000)
		(0.93854749 -0.20136772 0.00000000)
		(0.95530726 -0.19096979 0.00000000)
		(0.97206704 -0.17971063 0.00000000)
		(0.98882682 -0.16764104 0.00000000)
		(1.00558659 -0.15481544 0.00000000)
		(1.02234637 -0.14129167 0.00000000)
		(1.03910615 -0.12713072 0.00000000)
		(1.05586592 -0.11239645 0.00000000)
		(1.07262570 -0.09715530 0.00000000)
		(1.08938547 -0.08147601 0.00000000)
		(1.10614525 -0.06542930 0.00000000)
		(1.12290503 -0.04908751 0.00000000)
		(1.13966480 -0.03252436 0.00000000)
		(1.15642458 -0.01581453 0.00000000)
		(1.17318436 0.00096662 0.00000000)
		(1.18994413 0.01774341 0.00000000)
		(1.20670391 0.03444018 0.00000000)
		(1.22346369 0.05098163 0.00000000)
		(1.24022346 0.06729318 0.00000000)
		(1.25698324 0.08330125 0.00000000)
		(1.27374302 0.09893366 0.00000000)
		(1.29050279 0.11411991 0.00000000)
		(1.30726257 0.12879152 0.00000000)
		(1.32402235 0.14288231 0.00000000)
		(1.34078212 0.15632875 0.00000000)
		(1.35754190 0.16907019 0.00000000)
		(1.37430168 0.18104918 0.00000000)
		(1.39106145 0.19221170 0.00000000)
		(1.40782123 0.20250740 0.00000000)
		(1.42458101 0.21188985 0.00000000)
		(1.44134078 0.22031674 0.00000000)
		(1.45810056 0.22775008 0.00000000)
		(1.47486034 0.23415633 0.00000000)
		(1.49162011 0.23950661 0.00000000)
		(1.50837989 0.24377679 0.00000000)
		(1.52513966 0.24694761 0.00000000)
		(1.54189944 0.24900477 0.00000000)
		(1.55865922 0.24993900 0.00000000)
		(1.57541899 0.24974607 0.00000000)
		(1.59217877 0.24842688 0.00000000)
		(1.60893855 0.24598735 0.00000000)
		(1.62569832 0.24243850 0.00000000)
		(1.64245810 0.23779632 0.00000000)
		(1.65921788 0.23208175 0.00000000)
		(1.67597765 0.22532057 0.00000000)
		(1.69273743 0.21754326 0.00000000)
		(1.70949721 0.20878490 0.00000000)
		(1.72625698 0.19908498 0.00000000)
		(1.74301676 0.18848725 0.00000000)
		(1.75977654 0.17703951 0.00000000)
		(1.77653631 0.16479336 0.00000000)
		(1.79329609 0.15180405 0.00000000)
		(1.81005587 0.13813016 0.00000000)
		(1.82681564 0.12383333 0.00000000)
		(1.84357542 0.10897806 0.00000000)
		(1.86033520 0.09363133 0.00000000)
		(1.87709497 0.07786235 0.00000000)
		(1.89385475 0.06174223 0.00000000)
		(1.91061453 0.04534368 0.00000000)
		(1.92737430 0.02874064 0.00000000)
		(1.94413408 0.01200799 0.00000000)
		(1.96089385 -0.00477881 0.00000000)
		(1.97765363 -0.02154406 0.00000000)
		(1.99441341 -0.03821216 0.00000000)
		(2.01117318 -0.05470793 0.00000000)
		(2.02793296 -0.07095698 0.00000000)
		(2.04469274 -0.08688604 0.00000000)
		(2.06145251 -0.10242327 0.00000000)
		(2.07821229 -0.11749860 0.00000000)
		(2.09497207 -0.13204406 0.00000000)
		(2.11173184 -0.14599403 0.00000000)
		(2.12849162 -0.15928561 0.00000000)
		(2.14525140 -0.17185887 0.00000000)
		(2.16201117 -0.18365709 0.00000000)
		(2.17877095 -0.19462708 0.00000000)
		(2.19553073 -0.20471936 0.00000000)
		(2.21229050 -0.21388842 0.00000000)
		(2.22905028 -0.22209291 0.00000000)
		(2.24581006 -0.22929582 0.00000000)
		(2.26256983 -0.23546469 0.00000000)
		(2.27932961 -0.24057168 0.00000000)
		(2.29608939 -0.24459377 0.00000000)
		(2.31284916 -0.24751281 0.00000000)
		(2.32960894 -0.24931565 0.00000000)
		(2.34636872 -0.24999415 0.00000000)
		(2.36312849 -0.24954525 0.00000000)
		(2.37988827 -0.24797098 0.00000000)
		(2.39664804 -0.24527844 0.00000000)
		(2.41340782 -0.24147977 0.00000000)
		(2.43016760 -0.23659210 0.00000000)
		(2.44692737 -0.23063748 0.00000000)
		(2.46368715 -0.22364274 0.00000000)
		(2.48044693 -0.21563945 0.00000000)
		(2.49720670 -0.20666369 0.00000000)
		(2.51396648 -0.19675595 0.00000000)
		(2.53072626 -0.18596089 0.00000000)
		(2.54748603 -0.17432721 0.00000000)
		(2.56424581 -0.16190736 0.00000000)
		(2.58100559 -0.14875736 0.00000000)
		(2.59776536 -0.13493652 0.00000000)
		(2.61452514 -0.12050715 0.00000000)
		(2.63128492 -0.10553433 0.00000000)
		(2.64804469 -0.09008558 0.00000000)
		(2.66480447 -0.07423058 0.00000000)
		(2.68156425 -0.05804081 0.00000000)
		(2.69832402 -0.04158931 0.00000000)
		(2.71508380 -0.02495024 0.00000000)
		(2.73184358 -0.00819866 0.00000000)
		(2.74860335 0.00858989 0.00000000)
		(2.76536313 0.02533971 0.00000000)
		(2.78212291 0.04197525 0.00000000)
		(2.79888268 0.05842150 0.00000000)
		(2.81564246 0.07460428 0.00000000)
		(2.83240223 0.09045063 0.00000000)
		(2.84916201 0.10588906 0.00000000)
		(2.86592179 0.12084997 0.00000000)
		(2.88268156 0.13526589 0.00000000)
		(2.89944134 0.14907179 0.00000000)
		(2.91620112 0.16220543 0.00000000)
		(2.93296089 0.17460757 0.00000000)
		(2.95166480 0.18244121 0.00000000)
		(2.97036872 0.18945026 0.00000000)
		(2.98907263 0.19563471 0.00000000)
		(3.00777654 0.20099457 0.00000000)
		(3.02648045 0.20552983 0.00000000)
		(3.04518436 0.20924050 0.00000000)
		(3.06388827 0.21212658 0.00000000)
		(3.08259218 0.21418806 0.00000000)
		(3.10129609 0.21542495 0.00000000)
		(3.12000000 0.21583725 0.00000000)
		(3.14000000 0.21583725 0.00000000)
		(3.16000000 0.21583725 0.00000000)
		(3.18000000 0.21583725 0.00000000)
		(3.20000000 0.21583725 0.00000000)
		(3.22000000 0.21583725 0.00000000)
		(3.24000000 0.21583725 0.00000000)
		(3.26000000 0.21583725 0.00000000)
		(3.28000000 0.21583725 0.00000000)
		(3.30000000 0.21583725 0.00000000)
		(3.32000000 0.21583725 0.00000000)
		(3.34000000 0.21583725 0.00000000)
		(3.36000000 0.21583725 0.00000000)
		(3.38000000 0.21583725 0.00000000)
		(3.40000000 0.21583725 0.00000000)
		(3.42000000 0.21583725 0.00000000)
		(3.44000000 0.21583725 0.00000000)
		(3.46000000 0.21583725 0.00000000)
		(3.48000000 0.21583725 0.00000000)
		(3.50000000 0.21583725 0.00000000)
		(3.52000000 0.21583725 0.00000000)
		(3.54000000 0.21583725 0.00000000)
		(3.56000000 0.21583725 0.00000000)
		(3.58000000 0.21583725 0.00000000)
		(3.60000000 0.21583725 0.00000000)
		(3.62000000 0.21583725 0.00000000)
		(3.64000000 0.21583725 0.00000000)
		(3.66000000 0.21583725 0.00000000)
		(3.68000000 0.21583725 0.00000000)
		(3.70000000 0.21583725 0.00000000)
		(3.72000000 0.21583725 0.00000000)
		(3.74000000 0.21583725 0.00000000)
		(3.76000000 0.21583725 0.00000000)
		(3.78000000 0.21583725 0.00000000)
		(3.80000000 0.21583725 0.00000000)
		(3.82000000 0.21583725 0.00000000)
		(3.84000000 0.21583725 0.00000000)
		(3.86000000 0.21583725 0.00000000)
		(3.88000000 0.21583725 0.00000000)
		(3.90000000 0.21583725 0.00000000)
		(3.92000000 0.21583725 0.00000000)
		(3.94000000 0.21583725 0.00000000)
		(3.96000000 0.21583725 0.00000000)
		(3.98000000 0.21583725 0.00000000)
		(4.00000000 0.21583725 0.00000000)
	)
	polyLine 4 5
	(
		(-1.00000000 0.24997345 0.10000000)
		(-0.98000000 0.24997345 0.10000000)
		(-0.96000000 0.24997345 0.10000000)
		(-0.94000000 0.24997345 0.10000000)
		(-0.92000000 0.24997345 0.10000000)
		(-0.90000000 0.24997345 0.10000000)
		(-0.88000000 0.24997345 0.10000000)
		(-0.86000000 0.24997345 0.10000000)
		(-0.84000000 0.24997345 0.10000000)
		(-0.82000000 0.24997345 0.10000000)
		(-0.80000000 0.24997345 0.10000000)
		(-0.78000000 0.24997345 0.10000000)
		(-0.76000000 0.24997345 0.10000000)
		(-0.74000000 0.24997345 0.10000000)
		(-0.72000000 0.24997345 0.10000000)
		(-0.70000000 0.24997345 0.10000000)
		(-0.68000000 0.24997345 0.10000000)
		(-0.66000000 0.24997345 0.10000000)
		(-0.64000000 0.24997345 0.10000000)
		(-0.62000000 0.24997345 0.10000000)
		(-0.60000000 0.24997345 0.10000000)
		(-0.58000000 0.24997345 0.10000000)
		(-0.56000000 0.24997345 0.10000000)
		(-0.54000000 0.24997345 0.10000000)
		(-0.52000000 0.24997345 0.10000000)
		(-0.50000000 0.24997345 0.10000000)
		(-0.48000000 0.24997345 0.10000000)
		(-0.46000000 0.24997345 0.10000000)
		(-0.44000000 0.24997345 0.10000000)
		(-0.42000000 0.24997345 0.10000000)
		(-0.40000000 0.24997345 0.10000000)
		(-0.38000000 0.24997345 0.10000000)
		(-0.36000000 0.24997345 0.10000000)
		(-0.34000000 0.24997345 0.10000000)
		(-0.32000000 0.24997345 0.10000000)
		(-0.30000000 0.24997345 0.10000000)
		(-0.28000000 0.24997345 0.10000000)
		(-0.26000000 0.24997345 0.10000000)
		(-0.24000000 0.24997345 0.10000000)
		(-0.22000000 0.24997345 0.10000000)
		(-0.20000000 0.24997345 0.10000000)
		(-0.18000000 0.24997345 0.10000000)
		(-0.16000000 0.24997345 0.10000000)
		(-0.14000000 0.24997345 0.10000000)
		(-0.12000000 0.24997345 0.10000000)
		(-0.10000000 0.24997345 0.10000000)
		(-0.08162011 0.24982179 0.10000000)
		(-0.06324022 0.24936683 0.10000000)
		(-0.04486034 0.24860856 0.10000000)
		(-0.02648045 0.24754699 0.10000000)
		(-0.00810056 0.24618210 0.10000000)
		(0.01027933 0.24451391 0.10000000)
		(0.02865922 0.24254241 0.10000000)
		(0.04703911 0.24026760 0.10000000)
		(0.06541899 0.23768949 0.10000000)
		(0.08379888 0.23480807 0.10000000)
		(0.10055866 0.22851865 0.10000000)
		(0.11731844 0.22119868 0.10000000)
		(0.13407821 0.21288117 0.10000000)
		(0.15083799 0.20360363 0.10000000)
		(0.16759777 0.19340791 0.10000000)
		(0.18435754 0.18233997 0.10000000)
		(0.20111732 0.17044974 0.10000000)
		(0.21787709 0.15779083 0.10000000)
		(0.23463687 0.14442033 0.10000000)
		(0.25139665 0.13039854 0.10000000)
		(0.26815642 0.11578870 0.10000000)
		(0.28491620 0.10065668 0.10000000)
		(0.30167598 0.08507073 0.10000000)
		(0.31843575 0.06910114 0.10000000)
		(0.33519553 0.05281993 0.10000000)
		(0.35195531 0.03630051 0.10000000)
		(0.36871508 0.01961739 0.10000000)
		(0.38547486 0.00284580 0.10000000)
		(0.40223464 -0.01393862 0.10000000)
		(0.41899441 -0.03066019 0.10000000)
		(0.43575419 -0.04724348 0.10000000)
		(0.45251397 -0.06361372 0.10000000)
		(0.46927374 -0.07969709 0.10000000)
		(0.48603352 -0.09542104 0.10000000)
		(0.50279330 -0.11071468 0.10000000)
		(0.51955307 -0.12550902 0.10000000)
		(0.53631285 -0.13973736 0.10000000)
		(0.55307263 -0.15333553 0.10000000)
		(0.56983240 -0.16624220 0.10000000)
		(0.58659218 -0.17839917 0.10000000)
		(0.60335196 -0.18975162 0.10000000)
		(0.62011173 -0.20024834 0.10000000)
		(0.63687151 -0.20984200 0.10000000)
		(0.65363128 -0.21848935 0.10000000)
		(0.67039106 -0.22615137 0.10000000)
		(0.68715084 -0.23279352 0.10000000)
		(0.70391061 -0.23838584 0.10000000)
		(0.72067039 -0.24290312 0.10000000)
		(0.73743017 -0.24632497 0.10000000)
		(0.75418994 -0.24863598 0.10000000)
		(0.77094972 -0.24982572 0.10000000)
		(0.78770950 -0.24988882 0.10000000)
		(0.80446927 -0.24882500 0.10000000)
		(0.82122905 -0.24663905 0.10000000)
		(0.83798883 -0.24334084 0.10000000)
		(0.85474860 -0.23894523 0.10000000)
		(0.87150838 -0.23347206 0.10000000)
		(0.88826816 -0.22694600 0.10000000)
		(0.90502793 -0.21939648 0.10000000)
		(0.92178771 -0.21085755 0.10000000)
		(0.93854749 -0.20136772 0.10000000)
		(0.95530726 -0.19096979 0.10000000)
		(0.97206704 -0.17971063 0.10000000)
		(0.98882682 -0.16764104 0.10000000)
		(1.00558659 -0.15481544 0.10000000)
		(1.02234637 -0.14129167 0.10000000)
		(1.03910615 -0.12713072 0.10000000)
		(1.05586592 -0.11239645 0.10000000)
		(1.07262570 -0.09715530 0.10000000)
		(1.08938547 -0.08147601 0.10000000)
		(1.10614525 -0.06542930 0.10000000)
		(1.12290503 -0.04908751 0.10000000)
		(1.13966480 -0.03252436 0.10000000)
		(1.15642458 -0.01581453 0.10000000)
		(1.17318436 0.00096662 0.10000000)
		(1.18994413 0.01774341 0.10000000)
		(1.20670391 0.03444018 0.10000000)
		(1.22346369 0.05098163 0.10000000)
		(1.24022346 0.06729318 0.10000000)
		(1.25698324 0.08330125 0.10000000)
		(1.27374302 0.09893366 0.10000000)
		(1.29050279 0.11411991 0.10000000)
		(1.30726257 0.12879152 0.10000000)
		(1.32402235 0.14288231 0.10000000)
		(1.34078212 0.15632875 0.10000000)
		(1.35754190 0.16907019 0.10000000)
		(1.37430168 0.18104918 0.10000000)
		(1.39106145 0.19221170 0.10000000)
		(1.40782123 0.20250740 0.10000000)
		(1.42458101 0.21188985 0.10000000)
		(1.44134078 0.22031674 0.10000000)
		(1.45810056 0.22775008 0.10000000)
		(1.47486034 0.23415633 0.10000000)
		(1.49162011 0.23950661 0.10000000)
		(1.50837989 0.24377679 0.10000000)
		(1.52513966 0.24694761 0.10000000)
		(1.54189944 0.24900477 0.10000000)
		(1.55865922 0.24993900 0.10000000)
		(1.57541899 0.24974607 0.10000000)
		(1.59217877 0.24842688 0.10000000)
		(1.60893855 0.24598735 0.10000000)
		(1.62569832 0.24243850 0.10000000)
		(1.64245810 0.23779632 0.10000000)
		(1.65921788 0.23208175 0.10000000)
		(1.67597765 0.22532057 0.10000000)
		(1.69273743 0.21754326 0.10000000)
		(1.70949721 0.20878490 0.10000000)
		(1.72625698 0.19908498 0.10000000)
		(1.74301676 0.18848725 0.10000000)
		(1.75977654 0.17703951 0.10000000)
		(1.77653631 0.16479336 0.10000000)
		(1.79329609 0.15180405 0.10000000)
		(1.81005587 0.13813016 0.10000000)
		(1.82681564 0.12383333 0.10000000)
		(1.84357542 0.10897806 0.10000000)
		(1.86033520 0.09363133 0.10000000)
		(1.87709497 0.07786235 0.10000000)
		(1.89385475 0.06174223 0.10000000)
		(1.91061453 0.04534368 0.10000000)
		(1.92737430 0.02874064 0.10000000)
		(1.94413408 0.01200799 0.10000000)
		(1.96089385 -0.00477881 0.10000000)
		(1.97765363 -0.02154406 0.10000000)
		(1.99441341 -0.03821216 0.10000000)
		(2.01117318 -0.05470793 0.10000000)
		(2.02793296 -0.07095698 0.10000000)
		(2.04469274 -0.08688604 0.10000000)
		(2.06145251 -0.10242327 0.10000000)
		(2.07821229 -0.11749860 0.10000000)
		(2.09497207 -0.13204406 0.10000000)
		(2.11173184 -0.14599403 0.10000000)
		(2.12849162 -0.15928561 0.10000000)
		(2.14525140 -0.17185887 0.10000000)
		(2.16201117 -0.18365709 0.10000000)
		(2.17877095 -0.19462708 0.10000000)
		(2.19553073 -0.20471936 0.10000000)
		(2.21229050 -0.21388842 0.10000000)
		(2.22905028 -0.22209291 0.10000000)
		(2.24581006 -0.22929582 0.10000000)
		(2.26256983 -0.23546469 0.10000000)
		(2.27932961 -0.24057168 0.10000000)
		(2.29608939 -0.24459377 0.10000000)
		(2.31284916 -0.24751281 0.10000000)
		(2.32960894 -0.24931565 0.10000000)
		(2.34636872 -0.24999415 0.10000000)
		(2.36312849 -0.24954525 0.10000000)
		(2.37988827 -0.24797098 0.10000000)
		(2.39664804 -0.24527844 0.10000000)
		(2.41340782 -0.24147977 0.10000000)
		(2.43016760 -0.23659210 0.10000000)
		(2.44692737 -0.23063748 0.10000000)
		(2.46368715 -0.22364274 0.10000000)
		(2.48044693 -0.21563945 0.10000000)
		(2.49720670 -0.20666369 0.10000000)
		(2.51396648 -0.19675595 0.10000000)
		(2.53072626 -0.18596089 0.10000000)
		(2.54748603 -0.17432721 0.10000000)
		(2.56424581 -0.16190736 0.10000000)
		(2.58100559 -0.14875736 0.10000000)
		(2.59776536 -0.13493652 0.10000000)
		(2.61452514 -0.12050715 0.10000000)
		(2.63128492 -0.10553433 0.10000000)
		(2.64804469 -0.09008558 0.10000000)
		(2.66480447 -0.07423058 0.10000000)
		(2.68156425 -0.05804081 0.10000000)
		(2.69832402 -0.04158931 0.10000000)
		(2.71508380 -0.02495024 0.10000000)
		(2.73184358 -0.00819866 0.10000000)
		(2.74860335 0.00858989 0.10000000)
		(2.76536313 0.02533971 0.10000000)
		(2.78212291 0.04197525 0.10000000)
		(2.79888268 0.05842150 0.10000000)
		(2.81564246 0.07460428 0.10000000)
		(2.83240223 0.09045063 0.10000000)
		(2.84916201 0.10588906 0.10000000)
		(2.86592179 0.12084997 0.10000000)
		(2.88268156 0.13526589 0.10000000)
		(2.89944134 0.14907179 0.10000000)
		(2.91620112 0.16220543 0.10000000)
		(2.93296089 0.17460757 0.10000000)
		(2.95166480 0.18244121 0.10000000)
		(2.97036872 0.18945026 0.10000000)
		(2.98907263 0.19563471 0.10000000)
		(3.00777654 0.20099457 0.10000000)
		(3.02648045 0.20552983 0.10000000)
		(3.04518436 0.20924050 0.10000000)
		(3.06388827 0.21212658 0.10000000)
		(3.08259218 0.21418806 0.10000000)
		(3.10129609 0.21542495 0.10000000)
		(3.12000000 0.21583725 0.10000000)
		(3.14000000 0.21583725 0.10000000)
		(3.16000000 0.21583725 0.10000000)
		(3.18000000 0.21583725 0.10000000)
		(3.20000000 0.21583725 0.10000000)
		(3.22000000 0.21583725 0.10000000)
		(3.24000000 0.21583725 0.10000000)
		(3.26000000 0.21583725 0.10000000)
		(3.28000000 0.21583725 0.10000000)
		(3.30000000 0.21583725 0.10000000)
		(3.32000000 0.21583725 0.10000000)
		(3.34000000 0.21583725 0.10000000)
		(3.36000000 0.21583725 0.10000000)
		(3.38000000 0.21583725 0.10000000)
		(3.40000000 0.21583725 0.10000000)
		(3.42000000 0.21583725 0.10000000)
		(3.44000000 0.21583725 0.10000000)
		(3.46000000 0.21583725 0.10000000)
		(3.48000000 0.21583725 0.10000000)
		(3.50000000 0.21583725 0.10000000)
		(3.52000000 0.21583725 0.10000000)
		(3.54000000 0.21583725 0.10000000)
		(3.56000000 0.21583725 0.10000000)
		(3.58000000 0.21583725 0.10000000)
		(3.60000000 0.21583725 0.10000000)
		(3.62000000 0.21583725 0.10000000)
		(3.64000000 0.21583725 0.10000000)
		(3.66000000 0.21583725 0.10000000)
		(3.68000000 0.21583725 0.10000000)
		(3.70000000 0.21583725 0.10000000)
		(3.72000000 0.21583725 0.10000000)
		(3.74000000 0.21583725 0.10000000)
		(3.76000000 0.21583725 0.10000000)
		(3.78000000 0.21583725 0.10000000)
		(3.80000000 0.21583725 0.10000000)
		(3.82000000 0.21583725 0.10000000)
		(3.84000000 0.21583725 0.10000000)
		(3.86000000 0.21583725 0.10000000)
		(3.88000000 0.21583725 0.10000000)
		(3.90000000 0.21583725 0.10000000)
		(3.92000000 0.21583725 0.10000000)
		(3.94000000 0.21583725 0.10000000)
		(3.96000000 0.21583725 0.10000000)
		(3.98000000 0.21583725 0.10000000)
		(4.00000000 0.21583725 0.10000000)
	)
	polyLine 3 2
	(
		(-1.00000000 0.74997345 0.00000000)
		(-0.98000000 0.74808768 0.00000000)
		(-0.96000000 0.74620191 0.00000000)
		(-0.94000000 0.74431614 0.00000000)
		(-0.92000000 0.74243038 0.00000000)
		(-0.90000000 0.74054461 0.00000000)
		(-0.88000000 0.73865884 0.00000000)
		(-0.86000000 0.73677307 0.00000000)
		(-0.84000000 0.73488731 0.00000000)
		(-0.82000000 0.73300154 0.00000000)
		(-0.80000000 0.73111577 0.00000000)
		(-0.78000000 0.72923000 0.00000000)
		(-0.76000000 0.72734424 0.00000000)
		(-0.74000000 0.72545847 0.00000000)
		(-0.72000000 0.72357270 0.00000000)
		(-0.70000000 0.72168693 0.00000000)
		(-0.68000000 0.71980116 0.00000000)
		(-0.66000000 0.71791540 0.00000000)
		(-0.64000000 0.71602963 0.00000000)
		(-0.62000000 0.71414386 0.00000000)
		(-0.60000000 0.71225809 0.00000000)
		(-0.58000000 0.71037233 0.00000000)
		(-0.56000000 0.70848656 0.00000000)
		(-0.54000000 0.70660079 0.00000000)
		(-0.52000000 0.70471502 0.00000000)
		(-0.50000000 0.70282926 0.00000000)
		(-0.48000000 0.70094349 0.00000000)
		(-0.46000000 0.69905772 0.00000000)
		(-0.44000000 0.69717195 0.00000000)
		(-0.42000000 0.69528619 0.00000000)
		(-0.40000000 0.69340042 0.00000000)
		(-0.38000000 0.69151465 0.00000000)
		(-0.36000000 0.68962888 0.00000000)
		(-0.34000000 0.68774312 0.00000000)
		(-0.32000000 0.68585735 0.00000000)
		(-0.30000000 0.68397158 0.00000000)
		(-0.28000000 0.68208581 0.00000000)
		(-0.26000000 0.68020004 0.00000000)
		(-0.24000000 0.67831428 0.00000000)
		(-0.22000000 0.67642851 0.00000000)
		(-0.20000000 0.67454274 0.00000000)
		(-0.18000000 0.67265697 0.00000000)
		(-0.16000000 0.67077121 0.00000000)
		(-0.14000000 0.66888544 0.00000000)
		(-0.12000000 0.66699967 0.00000000)
		(-0.10000000 0.66511390 0.00000000)
		(-0.08162011 0.66386003 0.00000000)
		(-0.06324022 0.66250473 0.00000000)
		(-0.04486034 0.66104802 0.00000000)
		(-0.02648045 0.65948988 0.00000000)
		(-0.00810056 0.65783034 0.00000000)
		(0.01027933 0.65606937 0.00000000)
		(0.02865922 0.65420699 0.00000000)
		(0.04703911 0.65224319 0.00000000)
		(0.06541899 0.65017797 0.00000000)
		(0.08379888 0.64801133 0.00000000)
		(0.10055866 0.64404679 0.00000000)
		(0.11731844 0.63943265 0.00000000)
		(0.13407821 0.63418971 0.00000000)
		(0.15083799 0.62834161 0.00000000)
		(0.16759777 0.62191473 0.00000000)
		(0.18435754 0.61493805 0.00000000)
		(0.20111732 0.60744304 0.00000000)
		(0.21787709 0.59946349 0.00000000)
		(0.23463687 0.59103540 0.00000000)
		(0.25139665 0.58219676 0.00000000)
		(0.26815642 0.57298744 0.00000000)
		(0.28491620 0.56344897 0.00000000)
		(0.30167598 0.55362436 0.00000000)
		(0.31843575 0.54355792 0.00000000)
		(0.33519553 0.53329506 0.00000000)
		(0.35195531 0.52288204 0.00000000)
		(0.36871508 0.51236583 0.00000000)
		(0.38547486 0.50179385 0.00000000)
		(0.40223464 0.49121379 0.00000000)
		(0.41899441 0.48067334 0.00000000)
		(0.43575419 0.47022006 0.00000000)
		(0.45251397 0.45990107 0.00000000)
		(0.46927374 0.44976292 0.00000000)
		(0.48603352 0.43985132 0.00000000)
		(0.50279330 0.43021097 0.00000000)
		(0.51955307 0.42088535 0.00000000)
		(0.53631285 0.41191651 0.00000000)
		(0.55307263 0.40334490 0.00000000)
		(0.56983240 0.39520918 0.00000000)
		(0.58659218 0.38754603 0.00000000)
		(0.60335196 0.38039002 0.00000000)
		(0.62011173 0.37377340 0.00000000)
		(0.63687151 0.36772603 0.00000000)
		(0.65363128 0.36227518 0.00000000)
		(0.67039106 0.35744542 0.00000000)
		(0.68715084 0.35325854 0.00000000)
		(0.70391061 0.34973342 0.00000000)
		(0.72067039 0.34688595 0.00000000)
		(0.73743017 0.34472898 0.00000000)
		(0.75418994 0.34327224 0.00000000)
		(0.77094972 0.34252229 0.00000000)
		(0.78770950 0.34248251 0.00000000)
		(0.80446927 0.34315309 0.00000000)
		(0.82122905 0.34453101 0.00000000)
		(0.83798883 0.34661003 0.00000000)
		(0.85474860 0.34938080 0.00000000)
		(0.87150838 0.35283082 0.00000000)
		(0.88826816 0.35694453 0.00000000)
		(0.90502793 0.36170337 0.00000000)
		(0.92178771 0.36708588 0.00000000)
		(0.93854749 0.37306780 0.00000000)
		(0.95530726 0.37962214 0.00000000)
		(0.97206704 0.38671935 0.00000000)
		(0.98882682 0.39432742 0.00000000)
		(1.00558659 0.40241204 0.00000000)
		(1.02234637 0.41093675 0.00000000)
		(1.03910615 0.41986311 0.00000000)
		(1.05586592 0.42915087 0.00000000)
		(1.07262570 0.43875813 0.00000000)
		(1.08938547 0.44864157 0.00000000)
		(1.10614525 0.45875662 0.00000000)
		(1.12290503 0.46905767 0.00000000)
		(1.13966480 0.47949826 0.00000000)
		(1.15642458 0.49003131 0.00000000)
		(1.17318436 0.50060931 0.00000000)
		(1.18994413 0.51118456 0.00000000)
		(1.20670391 0.52170938 0.00000000)
		(1.22346369 0.53213629 0.00000000)
		(1.24022346 0.54241827 0.00000000)
		(1.25698324 0.55250897 0.00000000)
		(1.27374302 0.56236286 0.00000000)
		(1.29050279 0.57193552 0.00000000)
		(1.30726257 0.58118377 0.00000000)
		(1.32402235 0.59006590 0.00000000)
		(1.34078212 0.59854187 0.00000000)
		(1.35754190 0.60657344 0.00000000)
		(1.37430168 0.61412440 0.00000000)
		(1.39106145 0.62116070 0.00000000)
		(1.40782123 0.62765060 0.00000000)
		(1.42458101 0.63356483 0.00000000)
		(1.44134078 0.63887672 0.00000000)
		(1.45810056 0.64356233 0.00000000)
		(1.47486034 0.64760051 0.00000000)
		(1.49162011 0.65097306 0.00000000)
		(1.50837989 0.65366477 0.00000000)
		(1.52513966 0.65566349 0.00000000)
		(1.54189944 0.65696023 0.00000000)
		(1.55865922 0.65754912 0.00000000)
		(1.57541899 0.65742751 0.00000000)
		(1.59217877 0.65659595 0.00000000)
		(1.60893855 0.65505820 0.00000000)
		(1.62569832 0.65282117 0.00000000)
		(1.64245810 0.64989498 0.00000000)
		(1.65921788 0.64629280 0.00000000)
		(1.67597765 0.64203089 0.00000000)
		(1.69273743 0.63712846 0.00000000)
		(1.70949721 0.63160762 0.00000000)
		(1.72625698 0.62549328 0.00000000)
		(1.74301676 0.61881299 0.00000000)
		(1.75977654 0.61159690 0.00000000)
		(1.77653631 0.60387754 0.00000000)
		(1.79329609 0.59568973 0.00000000)
		(1.81005587 0.58707038 0.00000000)
		(1.82681564 0.57805838 0.00000000)
		(1.84357542 0.56869435 0.00000000)
		(1.86033520 0.55902053 0.00000000)
		(1.87709497 0.54908055 0.00000000)
		(1.89385475 0.53891923 0.00000000)
		(1.91061453 0.52858240 0.00000000)
		(1.92737430 0.51811667 0.00000000)
		(1.94413408 0.50756924 0.00000000)
		(1.96089385 0.49698767 0.00000000)
		(1.97765363 0.48641969 0.00000000)
		(1.99441341 0.47591296 0.00000000)
		(2.01117318 0.46551484 0.00000000)
		(2.02793296 0.45527225 0.00000000)
		(2.04469274 0.44523136 0.00000000)
		(2.06145251 0.43543746 0.00000000)
		(2.07821229 0.42593472 0.00000000)
		(2.09497207 0.41676599 0.00000000)
		(2.11173184 0.40797262 0.00000000)
		(2.12849162 0.39959427 0.00000000)
		(2.14525140 0.39166871 0.00000000)
		(2.16201117 0.38423170 0.00000000)
		(2.17877095 0.37731676 0.00000000)
		(2.19553073 0.37095509 0.00000000)
		(2.21229050 0.36517537 0.00000000)
		(2.22905028 0.36000367 0.00000000)
		(2.24581006 0.35546331 0.00000000)
		(2.26256983 0.35157477 0.00000000)
		(2.27932961 0.34835557 0.00000000)
		(2.29608939 0.34582025 0.00000000)
		(2.31284916 0.34398023 0.00000000)
		(2.32960894 0.34284381 0.00000000)
		(2.34636872 0.34241612 0.00000000)
		(2.36312849 0.34269908 0.00000000)
		(2.37988827 0.34369142 0.00000000)
		(2.39664804 0.34538866 0.00000000)
		(2.41340782 0.34778316 0.00000000)
		(2.43016760 0.35086410 0.00000000)
		(2.44692737 0.35461760 0.00000000)
		(2.46368715 0.35902673 0.00000000)
		(2.48044693 0.36407161 0.00000000)
		(2.49720670 0.36972948 0.00000000)
		(2.51396648 0.37597483 0.00000000)
		(2.53072626 0.38277950 0.00000000)
		(2.54748603 0.39011280 0.00000000)
		(2.56424581 0.39794165 0.00000000)