/*--------------------------------*- C++ -*----------------------------------*\\
/*--------------------------------*- C++ -*----------------------------------*\\
| =========                 |                                                 |
| \\\\      /  F ield         | OpenFOAM: The Open Source CFD Toolbox           |
|  \\\\    /   O peration     | Version:  v2012                                 |
|   \\\\  /    A nd           | Website:  www.openfoam.com                      |
|    \\\\/     M anipulation  |                                                 |
\\*---------------------------------------------------------------------------*/
FoamFile
{
    version     2.0;
    format      ascii;
    class       dictionary;
    object      blockMeshDict;
}
// * * * * * * * * * * * * * * * * * * * * * * * * * * * * * * * * * * * * * //

scale   0.01;

xmin -1;
xmax 5;
ymin 0;
ymax 0.5;
zmin 0;
zmax 0.1;

vertices
(
    (-1.00000000 0.13898767 0.00000000)
    (4.00000000 -0.13601096 0.00000000)
    (4.00000000 0.36398904 0.00000000)
    (-1.00000000 0.63898767 0.00000000)
    (-1.00000000 0.13898767 0.10000000)
    (4.00000000 -0.13601096 0.10000000)
    (4.00000000 0.36398904 0.10000000)
    (-1.00000000 0.63898767 0.10000000)
);

blocks
(
    hex (0 1 2 3 4 5 6 7) (200 20 1) simpleGrading (1 1 1)
);

edges
(
	polyLine 0 1
	(
		(-1.00000000 0.13898767 0.00000000)
		(-0.98000000 0.13898767 0.00000000)
		(-0.96000000 0.13898767 0.00000000)
		(-0.94000000 0.13898767 0.00000000)
		(-0.92000000 0.13898767 0.00000000)
		(-0.90000000 0.13898767 0.00000000)
		(-0.88000000 0.13898767 0.00000000)
		(-0.86000000 0.13898767 0.00000000)
		(-0.84000000 0.13898767 0.00000000)
		(-0.82000000 0.13898767 0.00000000)
		(-0.80000000 0.13898767 0.00000000)
		(-0.78000000 0.13898767 0.00000000)
		(-0.76000000 0.13898767 0.00000000)
		(-0.74000000 0.13898767 0.00000000)
		(-0.72000000 0.13898767 0.00000000)
		(-0.70000000 0.13898767 0.00000000)
		(-0.68000000 0.13898767 0.00000000)
		(-0.66000000 0.13898767 0.00000000)
		(-0.64000000 0.13898767 0.00000000)
		(-0.62000000 0.13898767 0.00000000)
		(-0.60000000 0.13898767 0.00000000)
		(-0.58000000 0.13898767 0.00000000)
		(-0.56000000 0.13898767 0.00000000)
		(-0.54000000 0.13898767 0.00000000)
		(-0.52000000 0.13898767 0.00000000)
		(-0.50000000 0.13898767 0.00000000)
		(-0.48000000 0.13898767 0.00000000)
		(-0.46000000 0.13898767 0.00000000)
		(-0.44000000 0.13898767 0.00000000)
		(-0.42000000 0.13898767 0.00000000)
		(-0.40000000 0.13898767 0.00000000)
		(-0.38000000 0.13898767 0.00000000)
		(-0.36000000 0.13898767 0.00000000)
		(-0.34000000 0.13898767 0.00000000)
		(-0.32000000 0.13898767 0.00000000)
		(-0.30000000 0.13898767 0.00000000)
		(-0.28000000 0.13898767 0.00000000)
		(-0.26000000 0.13898767 0.00000000)
		(-0.24000000 0.13898767 0.00000000)
		(-0.22000000 0.13898767 0.00000000)
		(-0.20000000 0.13898767 0.00000000)
		(-0.18000000 0.13898767 0.00000000)
		(-0.16000000 0.13898767 0.00000000)
		(-0.14000000 0.13898767 0.00000000)
		(-0.12000000 0.13898767 0.00000000)
		(-0.10000000 0.13898767 0.00000000)
		(-0.08162011 0.13839807 0.00000000)
		(-0.06324022 0.13662927 0.00000000)
		(-0.04486034 0.13368126 0.00000000)
		(-0.02648045 0.12955406 0.00000000)
		(-0.00810056 0.12424765 0.00000000)
		(0.01027933 0.11776205 0.00000000)
		(0.02865922 0.11009724 0.00000000)
		(0.04703911 0.10125323 0.00000000)
		(0.06541899 0.09123002 0.00000000)
		(0.08379888 0.08002761 0.00000000)
		(0.10055866 0.06743283 0.00000000)
		(0.11731844 0.05465059 0.00000000)
		(0.13407821 0.04171642 0.00000000)
		(0.15083799 0.02866628 0.00000000)
		(0.16759777 0.01553644 0.00000000)
		(0.18435754 0.00236342 0.00000000)
		(0.20111732 -0.01081618 0.00000000)
		(0.21787709 -0.02396571 0.00000000)
		(0.23463687 -0.03704861 0.00000000)
		(0.25139665 -0.05002852 0.00000000)
		(0.26815642 -0.06286934 0.00000000)
		(0.28491620 -0.07553539 0.00000000)
		(0.30167598 -0.08799145 0.00000000)
		(0.31843575 -0.10020289 0.00000000)
		(0.33519553 -0.11213576 0.00000000)
		(0.35195531 -0.12375690 0.00000000)
		(0.36871508 -0.13503398 0.00000000)
		(0.38547486 -0.14593567 0.00000000)
		(0.40223464 -0.15643166 0.00000000)
		(0.41899441 -0.16649276 0.00000000)
		(0.43575419 -0.17609100 0.00000000)
		(0.45251397 -0.18519971 0.00000000)
		(0.46927374 -0.19379356 0.00000000)
		(0.48603352 -0.20184866 0.00000000)
		(0.50279330 -0.20934261 0.00000000)
		(0.51955307 -0.21625459 0.00000000)
		(0.53631285 -0.22256538 0.00000000)
		(0.55307263 -0.22825742 0.00000000)
		(0.56983240 -0.23331491 0.00000000)
		(0.58659218 -0.23772378 0.00000000)
		(0.60335196 -0.24147176 0.00000000)
		(0.62011173 -0.24454845 0.00000000)
		(0.63687151 -0.24694529 0.00000000)
		(0.65363128 -0.24865562 0.00000000)
		(0.67039106 -0.24967468 0.00000000)
		(0.68715084 -0.24999963 0.00000000)
		(0.70391061 -0.24962959 0.00000000)
		(0.72067039 -0.24856556 0.00000000)
		(0.73743017 -0.24681052 0.00000000)
		(0.75418994 -0.24436934 0.00000000)
		(0.77094972 -0.24124880 0.00000000)
		(0.78770950 -0.23745759 0.00000000)
		(0.80446927 -0.23300624 0.00000000)
		(0.82122905 -0.22790713 0.00000000)
		(0.83798883 -0.22217443 0.00000000)
		(0.85474860 -0.21582408 0.00000000)
		(0.87150838 -0.20887373 0.00000000)
		(0.88826816 -0.20134271 0.00000000)
		(0.90502793 -0.19325195 0.00000000)
		(0.92178771 -0.18462395 0.00000000)
		(0.93854749 -0.17548269 0.00000000)
		(0.95530726 -0.16585358 0.00000000)
		(0.97206704 -0.15576340 0.00000000)
		(0.98882682 -0.14524019 0.00000000)
		(1.00558659 -0.13431320 0.00000000)
		(1.02234637 -0.12301283 0.00000000)
		(1.03910615 -0.11137047 0.00000000)
		(1.05586592 -0.09941851 0.00000000)
		(1.07262570 -0.08719016 0.00000000)
		(1.08938547 -0.07471941 0.00000000)
		(1.10614525 -0.06204095 0.00000000)
		(1.12290503 -0.04919001 0.00000000)
		(1.13966480 -0.03620232 0.00000000)
		(1.15642458 -0.02311399 0.00000000)
		(1.17318436 -0.00996140 0.00000000)
		(1.18994413 0.00321889 0.00000000)
		(1.20670391 0.01639022 0.00000000)
		(1.22346369 0.02951599 0.00000000)
		(1.24022346 0.04255971 0.00000000)
		(1.25698324 0.05548510 0.00000000)
		(1.27374302 0.06825625 0.00000000)
		(1.29050279 0.08083764 0.00000000)
		(1.30726257 0.09319431 0.00000000)
		(1.32402235 0.10529189 0.00000000)
		(1.34078212 0.11709675 0.00000000)
		(1.35754190 0.12857609 0.00000000)
		(1.37430168 0.13969798 0.00000000)
		(1.39106145 0.15043150 0.00000000)
		(1.40782123 0.16074683 0.00000000)
		(1.42458101 0.17061527 0.00000000)
		(1.44134078 0.18000940 0.00000000)
		(1.45810056 0.18890310 0.00000000)
		(1.47486034 0.19727164 0.00000000)
		(1.49162011 0.20509176 0.00000000)
		(1.50837989 0.21234173 0.00000000)
		(1.52513966 0.21900138 0.00000000)
		(1.54189944 0.22505220 0.00000000)
		(1.55865922 0.23047737 0.00000000)
		(1.57541899 0.23526180 0.00000000)
		(1.59217877 0.23939220 0.00000000)
		(1.60893855 0.24285709 0.00000000)
		(1.62569832 0.24564683 0.00000000)
		(1.64245810 0.24775366 0.00000000)
		(1.65921788 0.24917174 0.00000000)
		(1.67597765 0.24989711 0.00000000)
		(1.69273743 0.24992776 0.00000000)
		(1.70949721 0.24926360 0.00000000)
		(1.72625698 0.24790649 0.00000000)
		(1.74301676 0.24586019 0.00000000)
		(1.75977654 0.24313039 0.00000000)
		(1.77653631 0.23972469 0.00000000)
		(1.79329609 0.23565254 0.00000000)
		(1.81005587 0.23092528 0.00000000)
		(1.82681564 0.22555604 0.00000000)
		(1.84357542 0.21955974 0.00000000)
		(1.86033520 0.21295307 0.00000000)
		(1.87709497 0.20575438 0.00000000)
		(1.89385475 0.19798369 0.00000000)
		(1.91061453 0.18966260 0.00000000)
		(1.92737430 0.18081424 0.00000000)
		(1.94413408 0.17146321 0.00000000)
		(1.96089385 0.16163552 0.00000000)
		(1.97765363 0.15135847 0.00000000)
		(1.99441341 0.14066064 0.00000000)
		(2.01117318 0.12957177 0.00000000)
		(2.02793296 0.11812269 0.00000000)
		(2.04469274 0.10634523 0.00000000)
		(2.06145251 0.09427212 0.00000000)
		(2.07821229 0.08193694 0.00000000)
		(2.09497207 0.06937396 0.00000000)
		(2.11173184 0.05661813 0.00000000)
		(2.12849162 0.04370490 0.00000000)
		(2.14525140 0.03067016 0.00000000)
		(2.16201117 0.01755017 0.00000000)
		(2.17877095 0.00438138 0.00000000)
		(2.19553073 -0.00879959 0.00000000)
		(2.21229050 -0.02195609 0.00000000)
		(2.22905028 -0.03505156 0.00000000)
		(2.24581006 -0.04804958 0.00000000)
		(2.26256983 -0.06091402 0.00000000)
		(2.27932961 -0.07360912 0.00000000)
		(2.29608939 -0.08609959 0.00000000)
		(2.31284916 -0.09835070 0.00000000)
		(2.32960894 -0.11032838 0.00000000)
		(2.34636872 -0.12199936 0.00000000)
		(2.36312849 -0.13333117 0.00000000)
		(2.37988827 -0.14429232 0.00000000)
		(2.39664804 -0.15485233 0.00000000)
		(2.41340782 -0.16498185 0.00000000)
		(2.43016760 -0.17465272 0.00000000)
		(2.44692737 -0.18383805 0.00000000)
		(2.46368715 -0.19251230 0.00000000)
		(2.48044693 -0.20065136 0.00000000)
		(2.49720670 -0.20823261 0.00000000)
		(2.51396648 -0.21523497 0.00000000)
		(2.53072626 -0.22163897 0.00000000)
		(2.54748603 -0.22742681 0.00000000)
		(2.56424581 -0.23258239 0.00000000)
		(2.58100559 -0.23709139 0.00000000)
		(2.59776536 -0.24094127 0.00000000)
		(2.61452514 -0.24412133 0.00000000)
		(2.63128492 -0.24662273 0.00000000)
		(2.64804469 -0.24843851 0.00000000)
		(2.66480447 -0.24956362 0.00000000)
		(2.68156425 -0.24999494 0.00000000)
		(2.69832402 -0.24973127 0.00000000)
		(2.71508380 -0.24877334 0.00000000)
		(2.73184358 -0.24712382 0.00000000)
		(2.74860335 -0.24478728 0.00000000)
		(2.76536313 -0.24177023 0.00000000)
		(2.78212291 -0.23808105 0.00000000)
		(2.79888268 -0.23373000 0.00000000)
		(2.81564246 -0.22872918 0.00000000)
		(2.83240223 -0.22309249 0.00000000)
		(2.84916201 -0.21683559 0.00000000)
		(2.86592179 -0.20997588 0.00000000)
		(2.88268156 -0.20253244 0.00000000)
		(2.89944134 -0.19452595 0.00000000)
		(2.91620112 -0.18597867 0.00000000)
		(2.93296089 -0.17691437 0.00000000)
		(2.95166480 -0.16914272 0.00000000)
		(2.97036872 -0.16218914 0.00000000)
		(2.98907263 -0.15605363 0.00000000)
		(3.00777654 -0.15073619 0.00000000)
		(3.02648045 -0.14623681 0.00000000)
		(3.04518436 -0.14255551 0.00000000)
		(3.06388827 -0.13969227 0.00000000)
		(3.08259218 -0.13764710 0.00000000)
		(3.10129609 -0.13642000 0.00000000)
		(3.12000000 -0.13601096 0.00000000)
		(3.14000000 -0.13601096 0.00000000)
		(3.16000000 -0.13601096 0.00000000)
		(3.18000000 -0.13601096 0.00000000)
		(3.20000000 -0.13601096 0.00000000)
		(3.22000000 -0.13601096 0.00000000)
		(3.24000000 -0.13601096 0.00000000)
		(3.26000000 -0.13601096 0.00000000)
		(3.28000000 -0.13601096 0.00000000)
		(3.30000000 -0.13601096 0.00000000)
		(3.32000000 -0.13601096 0.00000000)
		(3.34000000 -0.13601096 0.00000000)
		(3.36000000 -0.13601096 0.00000000)
		(3.38000000 -0.13601096 0.00000000)
		(3.40000000 -0.13601096 0.00000000)
		(3.42000000 -0.13601096 0.00000000)
		(3.44000000 -0.13601096 0.00000000)
		(3.46000000 -0.13601096 0.00000000)
		(3.48000000 -0.13601096 0.00000000)
		(3.50000000 -0.13601096 0.00000000)
		(3.52000000 -0.13601096 0.00000000)
		(3.54000000 -0.13601096 0.00000000)
		(3.56000000 -0.13601096 0.00000000)
		(3.58000000 -0.13601096 0.00000000)
		(3.60000000 -0.13601096 0.00000000)
		(3.62000000 -0.13601096 0.00000000)
		(3.64000000 -0.13601096 0.00000000)
		(3.66000000 -0.13601096 0.00000000)
		(3.68000000 -0.13601096 0.00000000)
		(3.70000000 -0.13601096 0.00000000)
		(3.72000000 -0.13601096 0.00000000)
		(3.74000000 -0.13601096 0.00000000)
		(3.76000000 -0.13601096 0.00000000)
		(3.78000000 -0.13601096 0.00000000)
		(3.80000000 -0.13601096 0.00000000)
		(3.82000000 -0.13601096 0.00000000)
		(3.84000000 -0.13601096 0.00000000)
		(3.86000000 -0.13601096 0.00000000)
		(3.88000000 -0.13601096 0.00000000)
		(3.90000000 -0.13601096 0.00000000)
		(3.92000000 -0.13601096 0.00000000)
		(3.94000000 -0.13601096 0.00000000)
		(3.96000000 -0.13601096 0.00000000)
		(3.98000000 -0.13601096 0.00000000)
		(4.00000000 -0.13601096 0.00000000)
	)
	polyLine 4 5
	(
		(-1.00000000 0.13898767 0.10000000)
		(-0.98000000 0.13898767 0.10000000)
		(-0.96000000 0.13898767 0.10000000)
		(-0.94000000 0.13898767 0.10000000)
		(-0.92000000 0.13898767 0.10000000)
		(-0.90000000 0.13898767 0.10000000)
		(-0.88000000 0.13898767 0.10000000)
		(-0.86000000 0.13898767 0.10000000)
		(-0.84000000 0.13898767 0.10000000)
		(-0.82000000 0.13898767 0.10000000)
		(-0.80000000 0.13898767 0.10000000)
		(-0.78000000 0.13898767 0.10000000)
		(-0.76000000 0.13898767 0.10000000)
		(-0.74000000 0.13898767 0.10000000)
		(-0.72000000 0.13898767 0.10000000)
		(-0.70000000 0.13898767 0.10000000)
		(-0.68000000 0.13898767 0.10000000)
		(-0.66000000 0.13898767 0.10000000)
		(-0.64000000 0.13898767 0.10000000)
		(-0.62000000 0.13898767 0.10000000)
		(-0.60000000 0.13898767 0.10000000)
		(-0.58000000 0.13898767 0.10000000)
		(-0.56000000 0.13898767 0.10000000)
		(-0.54000000 0.13898767 0.10000000)
		(-0.52000000 0.13898767 0.10000000)
		(-0.50000000 0.13898767 0.10000000)
		(-0.48000000 0.13898767 0.10000000)
		(-0.46000000 0.13898767 0.10000000)
		(-0.44000000 0.13898767 0.10000000)
		(-0.42000000 0.13898767 0.10000000)
		(-0.40000000 0.13898767 0.10000000)
		(-0.38000000 0.13898767 0.10000000)
		(-0.36000000 0.13898767 0.10000000)
		(-0.34000000 0.13898767 0.10000000)
		(-0.32000000 0.13898767 0.10000000)
		(-0.30000000 0.13898767 0.10000000)
		(-0.28000000 0.13898767 0.10000000)
		(-0.26000000 0.13898767 0.10000000)
		(-0.24000000 0.13898767 0.10000000)
		(-0.22000000 0.13898767 0.10000000)
		(-0.20000000 0.13898767 0.10000000)
		(-0.18000000 0.13898767 0.10000000)
		(-0.16000000 0.13898767 0.10000000)
		(-0.14000000 0.13898767 0.10000000)
		(-0.12000000 0.13898767 0.10000000)
		(-0.10000000 0.13898767 0.10000000)
		(-0.08162011 0.13839807 0.10000000)
		(-0.06324022 0.13662927 0.10000000)
		(-0.04486034 0.13368126 0.10000000)
		(-0.02648045 0.12955406 0.10000000)
		(-0.00810056 0.12424765 0.10000000)
		(0.01027933 0.11776205 0.10000000)
		(0.02865922 0.11009724 0.10000000)
		(0.04703911 0.10125323 0.10000000)
		(0.06541899 0.09123002 0.10000000)
		(0.08379888 0.08002761 0.10000000)
		(0.10055866 0.06743283 0.10000000)
		(0.11731844 0.05465059 0.10000000)
		(0.13407821 0.04171642 0.10000000)
		(0.15083799 0.02866628 0.10000000)
		(0.16759777 0.01553644 0.10000000)
		(0.18435754 0.00236342 0.10000000)
		(0.20111732 -0.01081618 0.10000000)
		(0.21787709 -0.02396571 0.10000000)
		(0.23463687 -0.03704861 0.10000000)
		(0.25139665 -0.05002852 0.10000000)
		(0.26815642 -0.06286934 0.10000000)
		(0.28491620 -0.07553539 0.10000000)
		(0.30167598 -0.08799145 0.10000000)
		(0.31843575 -0.10020289 0.10000000)
		(0.33519553 -0.11213576 0.10000000)
		(0.35195531 -0.12375690 0.10000000)
		(0.36871508 -0.13503398 0.10000000)
		(0.38547486 -0.14593567 0.10000000)
		(0.40223464 -0.15643166 0.10000000)
		(0.41899441 -0.16649276 0.10000000)
		(0.43575419 -0.17609100 0.10000000)
		(0.45251397 -0.18519971 0.10000000)
		(0.46927374 -0.19379356 0.10000000)
		(0.48603352 -0.20184866 0.10000000)
		(0.50279330 -0.20934261 0.10000000)
		(0.51955307 -0.21625459 0.10000000)
		(0.53631285 -0.22256538 0.10000000)
		(0.55307263 -0.22825742 0.10000000)
		(0.56983240 -0.23331491 0.10000000)
		(0.58659218 -0.23772378 0.10000000)
		(0.60335196 -0.24147176 0.10000000)
		(0.62011173 -0.24454845 0.10000000)
		(0.63687151 -0.24694529 0.10000000)
		(0.65363128 -0.24865562 0.10000000)
		(0.67039106 -0.24967468 0.10000000)
		(0.68715084 -0.24999963 0.10000000)
		(0.70391061 -0.24962959 0.10000000)
		(0.72067039 -0.24856556 0.10000000)
		(0.73743017 -0.24681052 0.10000000)
		(0.75418994 -0.24436934 0.10000000)
		(0.77094972 -0.24124880 0.10000000)
		(0.78770950 -0.23745759 0.10000000)
		(0.80446927 -0.23300624 0.10000000)
		(0.82122905 -0.22790713 0.10000000)
		(0.83798883 -0.22217443 0.10000000)
		(0.85474860 -0.21582408 0.10000000)
		(0.87150838 -0.20887373 0.10000000)
		(0.88826816 -0.20134271 0.10000000)
		(0.90502793 -0.19325195 0.10000000)
		(0.92178771 -0.18462395 0.10000000)
		(0.93854749 -0.17548269 0.10000000)
		(0.95530726 -0.16585358 0.10000000)
		(0.97206704 -0.15576340 0.10000000)
		(0.98882682 -0.14524019 0.10000000)
		(1.00558659 -0.13431320 0.10000000)
		(1.02234637 -0.12301283 0.10000000)
		(1.03910615 -0.11137047 0.10000000)
		(1.05586592 -0.09941851 0.10000000)
		(1.07262570 -0.08719016 0.10000000)
		(1.08938547 -0.07471941 0.10000000)
		(1.10614525 -0.06204095 0.10000000)
		(1.12290503 -0.04919001 0.10000000)
		(1.13966480 -0.03620232 0.10000000)
		(1.15642458 -0.02311399 0.10000000)
		(1.17318436 -0.00996140 0.10000000)
		(1.18994413 0.00321889 0.10000000)
		(1.20670391 0.01639022 0.10000000)
		(1.22346369 0.02951599 0.10000000)
		(1.24022346 0.04255971 0.10000000)
		(1.25698324 0.05548510 0.10000000)
		(1.27374302 0.06825625 0.10000000)
		(1.29050279 0.08083764 0.10000000)
		(1.30726257 0.09319431 0.10000000)
		(1.32402235 0.10529189 0.10000000)
		(1.34078212 0.11709675 0.10000000)
		(1.35754190 0.12857609 0.10000000)
		(1.37430168 0.13969798 0.10000000)
		(1.39106145 0.15043150 0.10000000)
		(1.40782123 0.16074683 0.10000000)
		(1.42458101 0.17061527 0.10000000)
		(1.44134078 0.18000940 0.10000000)
		(1.45810056 0.18890310 0.10000000)
		(1.47486034 0.19727164 0.10000000)
		(1.49162011 0.20509176 0.10000000)
		(1.50837989 0.21234173 0.10000000)
		(1.52513966 0.21900138 0.10000000)
		(1.54189944 0.22505220 0.10000000)
		(1.55865922 0.23047737 0.10000000)
		(1.57541899 0.23526180 0.10000000)
		(1.59217877 0.23939220 0.10000000)
		(1.60893855 0.24285709 0.10000000)
		(1.62569832 0.24564683 0.10000000)
		(1.64245810 0.24775366 0.10000000)
		(1.65921788 0.24917174 0.10000000)
		(1.67597765 0.24989711 0.10000000)
		(1.69273743 0.24992776 0.10000000)
		(1.70949721 0.24926360 0.10000000)
		(1.72625698 0.24790649 0.10000000)
		(1.74301676 0.24586019 0.10000000)
		(1.75977654 0.24313039 0.10000000)
		(1.77653631 0.23972469 0.10000000)
		(1.79329609 0.23565254 0.10000000)
		(1.81005587 0.23092528 0.10000000)
		(1.82681564 0.22555604 0.10000000)
		(1.84357542 0.21955974 0.10000000)
		(1.86033520 0.21295307 0.10000000)
		(1.87709497 0.20575438 0.10000000)
		(1.89385475 0.19798369 0.10000000)
		(1.91061453 0.18966260 0.10000000)
		(1.92737430 0.18081424 0.10000000)
		(1.94413408 0.17146321 0.10000000)
		(1.96089385 0.16163552 0.10000000)
		(1.97765363 0.15135847 0.10000000)
		(1.99441341 0.14066064 0.10000000)
		(2.01117318 0.12957177 0.10000000)
		(2.02793296 0.11812269 0.10000000)
		(2.04469274 0.10634523 0.10000000)
		(2.06145251 0.09427212 0.10000000)
		(2.07821229 0.08193694 0.10000000)
		(2.09497207 0.06937396 0.10000000)
		(2.11173184 0.05661813 0.10000000)
		(2.12849162 0.04370490 0.10000000)
		(2.14525140 0.03067016 0.10000000)
		(2.16201117 0.01755017 0.10000000)
		(2.17877095 0.00438138 0.10000000)
		(2.19553073 -0.00879959 0.10000000)
		(2.21229050 -0.02195609 0.10000000)
		(2.22905028 -0.03505156 0.10000000)
		(2.24581006 -0.04804958 0.10000000)
		(2.26256983 -0.06091402 0.10000000)
		(2.27932961 -0.07360912 0.10000000)
		(2.29608939 -0.08609959 0.10000000)
		(2.31284916 -0.09835070 0.10000000)
		(2.32960894 -0.11032838 0.10000000)
		(2.34636872 -0.12199936 0.10000000)
		(2.36312849 -0.13333117 0.10000000)
		(2.37988827 -0.14429232 0.10000000)
		(2.39664804 -0.15485233 0.10000000)
		(2.41340782 -0.16498185 0.10000000)
		(2.43016760 -0.17465272 0.10000000)
		(2.44692737 -0.18383805 0.10000000)
		(2.46368715 -0.19251230 0.10000000)
		(2.48044693 -0.20065136 0.10000000)
		(2.49720670 -0.20823261 0.10000000)
		(2.51396648 -0.21523497 0.10000000)
		(2.53072626 -0.22163897 0.10000000)
		(2.54748603 -0.22742681 0.10000000)
		(2.56424581 -0.23258239 0.10000000)
		(2.58100559 -0.23709139 0.10000000)
		(2.59776536 -0.24094127 0.10000000)
		(2.61452514 -0.24412133 0.10000000)
		(2.63128492 -0.24662273 0.10000000)
		(2.64804469 -0.24843851 0.10000000)
		(2.66480447 -0.24956362 0.10000000)
		(2.68156425 -0.24999494 0.10000000)
		(2.69832402 -0.24973127 0.10000000)
		(2.71508380 -0.24877334 0.10000000)
		(2.73184358 -0.24712382 0.10000000)
		(2.74860335 -0.24478728 0.10000000)
		(2.76536313 -0.24177023 0.10000000)
		(2.78212291 -0.23808105 0.10000000)
		(2.79888268 -0.23373000 0.10000000)
		(2.81564246 -0.22872918 0.10000000)
		(2.83240223 -0.22309249 0.10000000)
		(2.84916201 -0.21683559 0.10000000)
		(2.86592179 -0.20997588 0.10000000)
		(2.88268156 -0.20253244 0.10000000)
		(2.89944134 -0.19452595 0.10000000)
		(2.91620112 -0.18597867 0.10000000)
		(2.93296089 -0.17691437 0.10000000)
		(2.95166480 -0.16914272 0.10000000)
		(2.97036872 -0.16218914 0.10000000)
		(2.98907263 -0.15605363 0.10000000)
		(3.00777654 -0.15073619 0.10000000)
		(3.02648045 -0.14623681 0.10000000)
		(3.04518436 -0.14255551 0.10000000)
		(3.06388827 -0.13969227 0.10000000)
		(3.08259218 -0.13764710 0.10000000)
		(3.10129609 -0.13642000 0.10000000)
		(3.12000000 -0.13601096 0.10000000)
		(3.14000000 -0.13601096 0.10000000)
		(3.16000000 -0.13601096 0.10000000)
		(3.18000000 -0.13601096 0.10000000)
		(3.20000000 -0.13601096 0.10000000)
		(3.22000000 -0.13601096 0.10000000)
		(3.24000000 -0.13601096 0.10000000)
		(3.26000000 -0.13601096 0.10000000)
		(3.28000000 -0.13601096 0.10000000)
		(3.30000000 -0.13601096 0.10000000)
		(3.32000000 -0.13601096 0.10000000)
		(3.34000000 -0.13601096 0.10000000)
		(3.36000000 -0.13601096 0.10000000)
		(3.38000000 -0.13601096 0.10000000)
		(3.40000000 -0.13601096 0.10000000)
		(3.42000000 -0.13601096 0.10000000)
		(3.44000000 -0.13601096 0.10000000)
		(3.46000000 -0.13601096 0.10000000)
		(3.48000000 -0.13601096 0.10000000)
		(3.50000000 -0.13601096 0.10000000)
		(3.52000000 -0.13601096 0.10000000)
		(3.54000000 -0.13601096 0.10000000)
		(3.56000000 -0.13601096 0.10000000)
		(3.58000000 -0.13601096 0.10000000)
		(3.60000000 -0.13601096 0.10000000)
		(3.62000000 -0.13601096 0.10000000)
		(3.64000000 -0.13601096 0.10000000)
		(3.66000000 -0.13601096 0.10000000)
		(3.68000000 -0.13601096 0.10000000)
		(3.70000000 -0.13601096 0.10000000)
		(3.72000000 -0.13601096 0.10000000)
		(3.74000000 -0.13601096 0.10000000)
		(3.76000000 -0.13601096 0.10000000)
		(3.78000000 -0.13601096 0.10000000)
		(3.80000000 -0.13601096 0.10000000)
		(3.82000000 -0.13601096 0.10000000)
		(3.84000000 -0.13601096 0.10000000)
		(3.86000000 -0.13601096 0.10000000)
		(3.88000000 -0.13601096 0.10000000)
		(3.90000000 -0.13601096 0.10000000)
		(3.92000000 -0.13601096 0.10000000)
		(3.94000000 -0.13601096 0.10000000)
		(3.96000000 -0.13601096 0.10000000)
		(3.98000000 -0.13601096 0.10000000)
		(4.00000000 -0.13601096 0.10000000)
	)
	polyLine 3 2
	(
		(-1.00000000 0.63898767 0.00000000)
		(-0.98000000 0.63943344 0.00000000)
		(-0.96000000 0.63987922 0.00000000)
		(-0.94000000 0.64032499 0.00000000)
		(-0.92000000 0.64077077 0.00000000)
		(-0.90000000 0.64121654 0.00000000)
		(-0.88000000 0.64166232 0.00000000)
		(-0.86000000 0.64210809 0.00000000)
		(-0.84000000 0.64255386 0.00000000)
		(-0.82000000 0.64299964 0.00000000)
		(-0.80000000 0.64344541 0.00000000)
		(-0.78000000 0.64389119 0.00000000)
		(-0.76000000 0.64433696 0.00000000)
		(-0.74000000 0.64478274 0.00000000)
		(-0.72000000 0.64522851 0.00000000)
		(-0.70000000 0.64567429 0.00000000)
		(-0.68000000 0.64612006 0.00000000)
		(-0.66000000 0.64656583 0.00000000)
		(-0.64000000 0.64701161 0.00000000)
		(-0.62000000 0.64745738 0.00000000)
		(-0.60000000 0.64790316 0.00000000)
		(-0.58000000 0.64834893 0.00000000)
		(-0.56000000 0.64879471 0.00000000)
		(-0.54000000 0.64924048 0.00000000)
		(-0.52000000 0.64968626 0.00000000)
		(-0.50000000 0.65013203 0.00000000)
		(-0.48000000 0.65057781 0.00000000)
		(-0.46000000 0.65102358 0.00000000)
		(-0.44000000 0.65146935 0.00000000)
		(-0.42000000 0.65191513 0.00000000)
		(-0.40000000 0.65236090 0.00000000)
		(-0.38000000 0.65280668 0.00000000)
		(-0.36000000 0.65325245 0.00000000)
		(-0.34000000 0.65369823 0.00000000)
		(-0.32000000 0.65414400 0.00000000)
		(-0.30000000 0.65458978 0.00000000)
		(-0.28000000 0.65503555 0.00000000)
		(-0.26000000 0.65548132 0.00000000)
		(-0.24000000 0.65592710 0.00000000)
		(-0.22000000 0.65637287 0.00000000)
		(-0.20000000 0.65681865 0.00000000)
		(-0.18000000 0.65726442 0.00000000)
		(-0.16000000 0.65771020 0.00000000)
		(-0.14000000 0.65815597 0.00000000)
		(-0.12000000 0.65860175 0.00000000)
		(-0.10000000 0.65904752 0.00000000)
		(-0.08162011 0.65981584 0.00000000)
		(-0.06324022 0.65893692 0.00000000)
		(-0.04486034 0.65641074 0.00000000)
		(-0.02648045 0.65223732 0.00000000)
		(-0.00810056 0.64641665 0.00000000)
		(0.01027933 0.63894872 0.00000000)
		(0.02865922 0.62983355 0.00000000)
		(0.04703911 0.61907113 0.00000000)
		(0.06541899 0.60666146 0.00000000)
		(0.08379888 0.59260454 0.00000000)
		(0.10055866 0.57803041 0.00000000)
		(0.11731844 0.56323934 0.00000000)
		(0.13407821 0.54827247 0.00000000)
		(0.15083799 0.53317140 0.00000000)
		(0.16759777 0.51797811 0.00000000)
		(0.18435754 0.50273485 0.00000000)
		(0.20111732 0.48748398 0.00000000)
		(0.21787709 0.47226790 0.00000000)
		(0.23463687 0.45712892 0.00000000)
		(0.25139665 0.44210913 0.00000000)
		(0.26815642 0.42725027 0.00000000)
		(0.28491620 0.41259366 0.00000000)
		(0.30167598 0.39818004 0.00000000)
		(0.31843575 0.38404948 0.00000000)
		(0.33519553 0.37024126 0.00000000)
		(0.35195531 0.35679378 0.00000000)
		(0.36871508 0.34374442 0.00000000)
		(0.38547486 0.33112945 0.00000000)
		(0.40223464 0.31898394 0.00000000)
		(0.41899441 0.30734167 0.00000000)
		(0.43575419 0.29623498 0.00000000)
		(0.45251397 0.28569477 0.00000000)
		(0.46927374 0.27575034 0.00000000)
		(0.48603352 0.26642932 0.00000000)
		(0.50279330 0.25775763 0.00000000)
		(0.51955307 0.24975939 0.00000000)
		(0.53631285 0.24245681 0.00000000)
		(0.55307263 0.23587022 0.00000000)
		(0.56983240 0.23001791 0.00000000)
		(0.58659218 0.22491616 0.00000000)
		(0.60335196 0.22057915 0.00000000)
		(0.62011173 0.21701893 0.00000000)
		(0.63687151 0.21424541 0.00000000)
		(0.65363128 0.21226629 0.00000000)
		(0.67039106 0.21108708 0.00000000)
		(0.68715084 0.21071106 0.00000000)
		(0.70391061 0.21113926 0.00000000)
		(0.72067039 0.21237051 0.00000000)
		(0.73743017 0.21440137 0.00000000)
		(0.75418994 0.21722620 0.00000000)
		(0.77094972 0.22083715 0.00000000)
		(0.78770950 0.22522418 0.00000000)
		(0.80446927 0.23037509 0.00000000)
		(0.82122905 0.23627557 0.00000000)
		(0.83798883 0.24290921 0.00000000)
		(0.85474860 0.25025756 0.00000000)
		(0.87150838 0.25830021 0.00000000)
		(0.88826816 0.26701478 0.00000000)
		(0.90502793 0.27637706 0.00000000)
		(0.92178771 0.28636102 0.00000000)
		(0.93854749 0.29693890 0.00000000)
		(0.95530726 0.30808129 0.00000000)
		(0.97206704 0.31975722 0.00000000)
		(0.98882682 0.33193424 0.00000000)
		(1.00558659 0.34457847 0.00000000)
		(1.02234637 0.35765479 0.00000000)
		(1.03910615 0.37112682 0.00000000)
		(1.05586592 0.38495713 0.00000000)
		(1.07262570 0.39910726 0.00000000)
		(1.08938547 0.41353787 0.00000000)
		(1.10614525 0.42820885 0.00000000)
		(1.12290503 0.44307942 0.00000000)
		(1.13966480 0.45810822 0.00000000)
		(1.15642458 0.47325348 0.00000000)
		(1.17318436 0.48847310 0.00000000)
		(1.18994413 0.50372476 0.00000000)
		(1.20670391 0.51896607 0.00000000)
		(1.22346369 0.53415465 0.00000000)
		(1.24022346 0.54924828 0.00000000)
		(1.25698324 0.56420500 0.00000000)
		(1.27374302 0.57898323 0.00000000)
		(1.29050279 0.59354188 0.00000000)
		(1.30726257 0.60784049 0.00000000)
		(1.32402235 0.62183929 0.00000000)
		(1.34078212 0.63549938 0.00000000)
		(1.35754190 0.64878278 0.00000000)
		(1.37430168 0.66165256 0.00000000)
		(1.39106145 0.67407294 0.00000000)
		(1.40782123 0.68600939 0.00000000)
		(1.42458101 0.69742873 0.00000000)
		(1.44134078 0.70829922 0.00000000)
		(1.45810056 0.71859063 0.00000000)
		(1.47486034 0.72827435 0.00000000)
		(1.49162011 0.73732347 0.00000000)
		(1.50837989 0.74571282 0.00000000)
		(1.52513966 0.75341908 0.00000000)
		(1.54189944 0.76042083 0.00000000)
		(1.55865922 0.76669860 0.00000000)
		(1.57541899 0.77223495 0.00000000)
		(1.59217877 0.77701448 0.00000000)
		(1.60893855 0.78102390 0.00000000)
		(1.62569832 0.78425206 0.00000000)
		(1.64245810 0.78669000 0.00000000)
		(1.65921788 0.78833094 0.00000000)
		(1.67597765 0.78917030 0.00000000)
		(1.69273743 0.78920577 0.00000000)
		(1.70949721 0.78843724 0.00000000)
		(1.72625698 0.78686684 0.00000000)
		(1.74301676 0.78449895 0.00000000)
		(1.75977654 0.78134015 0.00000000)
		(1.77653631 0.77739921 0.00000000)
		(1.79329609 0.77268710 0.00000000)
		(1.81005587 0.76721691 0.00000000)
		(1.82681564 0.76100385 0.00000000)
		(1.84357542 0.75406519 0.00000000)
		(1.86033520 0.74642023 0.00000000)
		(1.87709497 0.73809021 0.00000000)
		(1.89385475 0.72909830 0.00000000)
		(1.91061453 0.71946949 0.00000000)
		(1.92737430 0.70923054 0.00000000)
		(1.94413408 0.69840994 0.00000000)
		(1.96089385 0.68703774 0.00000000)
		(1.97765363 0.67514558 0.00000000)
		(1.99441341 0.66276651 0.00000000)
		(2.01117318 0.64993494 0.00000000)
		(2.02793296 0.63668655 0.00000000)
		(2.04469274 0.62305817 0.00000000)
		(2.06145251 0.60908769 0.00000000)
		(2.07821229 0.59481394 0.00000000)
		(2.09497207 0.58027660 0.00000000)
		(2.11173184 0.56551609 0.00000000)
		(2.12849162 0.55057345 0.00000000)
		(2.14525140 0.53549021 0.00000000)
		(2.16201117 0.52030831 0.00000000)
		(2.17877095 0.50506995 0.00000000)
		(2.19553073 0.48981749 0.00000000)
		(2.21229050 0.47459334 0.00000000)
		(2.22905028 0.45943983 0.00000000)
		(2.24581006 0.44439907 0.00000000)
		(2.26256983 0.42951288 0.00000000)
		(2.27932961 0.41482265 0.00000000)
		(2.29608939 0.40036922 0.00000000)
		(2.31284916 0.38619276 0.00000000)
		(2.32960894 0.37233269 0.00000000)
		(2.34636872 0.35882753 0.00000000)
		(2.36312849 0.34571484 0.00000000)
		(2.37988827 0.33303107 0.00000000)
		(2.39664804 0.32081147 0.00000000)
		(2.41340782 0.30909002 0.00000000)
		(2.43016760 0.29789930 0.00000000)
		(2.44692737 0.28727043 0.00000000)
		(2.46368715 0.27723296 0.00000000)
		(2.48044693 0.26781478 0.00000000)
		(2.49720670 0.25904208 0.00000000)