/*--------------------------------*- C++ -*----------------------------------*\\
/*--------------------------------*- C++ -*----------------------------------*\\
| =========                 |                                                 |
| \\\\      /  F ield         | OpenFOAM: The Open Source CFD Toolbox           |
|  \\\\    /   O peration     | Version:  v2012                                 |
|   \\\\  /    A nd           | Website:  www.openfoam.com                      |
|    \\\\/     M anipulation  |                                                 |
\\*---------------------------------------------------------------------------*/
FoamFile
{
    version     2.0;
    format      ascii;
    class       dictionary;
    object      blockMeshDict;
}
// * * * * * * * * * * * * * * * * * * * * * * * * * * * * * * * * * * * * * //

scale   0.01;

xmin -1;
xmax 5;
ymin 0;
ymax 0.5;
zmin 0;
zmax 0.1;

vertices
(
    (-1.00000000 -0.00657841 0.00000000)
    (4.00000000 0.23978890 0.00000000)
    (4.00000000 0.73978890 0.00000000)
    (-1.00000000 0.49342159 0.00000000)
    (-1.00000000 -0.00657841 0.10000000)
    (4.00000000 0.23978890 0.10000000)
    (4.00000000 0.73978890 0.10000000)
    (-1.00000000 0.49342159 0.10000000)
);

blocks
(
    hex (0 1 2 3 4 5 6 7) (200 20 1) simpleGrading (1 1 1)
);

edges
(
	polyLine 0 1
	(
		(-1.00000000 -0.00657841 0.00000000)
		(-0.98000000 -0.00657841 0.00000000)
		(-0.96000000 -0.00657841 0.00000000)
		(-0.94000000 -0.00657841 0.00000000)
		(-0.92000000 -0.00657841 0.00000000)
		(-0.90000000 -0.00657841 0.00000000)
		(-0.88000000 -0.00657841 0.00000000)
		(-0.86000000 -0.00657841 0.00000000)
		(-0.84000000 -0.00657841 0.00000000)
		(-0.82000000 -0.00657841 0.00000000)
		(-0.80000000 -0.00657841 0.00000000)
		(-0.78000000 -0.00657841 0.00000000)
		(-0.76000000 -0.00657841 0.00000000)
		(-0.74000000 -0.00657841 0.00000000)
		(-0.72000000 -0.00657841 0.00000000)
		(-0.70000000 -0.00657841 0.00000000)
		(-0.68000000 -0.00657841 0.00000000)
		(-0.66000000 -0.00657841 0.00000000)
		(-0.64000000 -0.00657841 0.00000000)
		(-0.62000000 -0.00657841 0.00000000)
		(-0.60000000 -0.00657841 0.00000000)
		(-0.58000000 -0.00657841 0.00000000)
		(-0.56000000 -0.00657841 0.00000000)
		(-0.54000000 -0.00657841 0.00000000)
		(-0.52000000 -0.00657841 0.00000000)
		(-0.50000000 -0.00657841 0.00000000)
		(-0.48000000 -0.00657841 0.00000000)
		(-0.46000000 -0.00657841 0.00000000)
		(-0.44000000 -0.00657841 0.00000000)
		(-0.42000000 -0.00657841 0.00000000)
		(-0.40000000 -0.00657841 0.00000000)
		(-0.38000000 -0.00657841 0.00000000)
		(-0.36000000 -0.00657841 0.00000000)
		(-0.34000000 -0.00657841 0.00000000)
		(-0.32000000 -0.00657841 0.00000000)
		(-0.30000000 -0.00657841 0.00000000)
		(-0.28000000 -0.00657841 0.00000000)
		(-0.26000000 -0.00657841 0.00000000)
		(-0.24000000 -0.00657841 0.00000000)
		(-0.22000000 -0.00657841 0.00000000)
		(-0.20000000 -0.00657841 0.00000000)
		(-0.18000000 -0.00657841 0.00000000)
		(-0.16000000 -0.00657841 0.00000000)
		(-0.14000000 -0.00657841 0.00000000)
		(-0.12000000 -0.00657841 0.00000000)
		(-0.10000000 -0.00657841 0.00000000)
		(-0.08162011 -0.00774666 0.00000000)
		(-0.06324022 -0.01125141 0.00000000)
		(-0.04486034 -0.01709265 0.00000000)
		(-0.02648045 -0.02527040 0.00000000)
		(-0.00810056 -0.03578464 0.00000000)
		(0.01027933 -0.04863537 0.00000000)
		(0.02865922 -0.06382261 0.00000000)
		(0.04703911 -0.08134634 0.00000000)
		(0.06541899 -0.10120657 0.00000000)
		(0.08379888 -0.12340330 0.00000000)
		(0.10055866 -0.14408115 0.00000000)
		(0.11731844 -0.16337678 0.00000000)
		(0.13407821 -0.18110510 0.00000000)
		(0.15083799 -0.19709601 0.00000000)
		(0.16759777 -0.21119613 0.00000000)
		(0.18435754 -0.22327018 0.00000000)
		(0.20111732 -0.23320233 0.00000000)
		(0.21787709 -0.24089731 0.00000000)
		(0.23463687 -0.24628128 0.00000000)
		(0.25139665 -0.24930261 0.00000000)
		(0.26815642 -0.24993230 0.00000000)
		(0.28491620 -0.24816431 0.00000000)
		(0.30167598 -0.24401562 0.00000000)
		(0.31843575 -0.23752601 0.00000000)
		(0.33519553 -0.22875774 0.00000000)
		(0.35195531 -0.21779493 0.00000000)
		(0.36871508 -0.20474275 0.00000000)
		(0.38547486 -0.18972641 0.00000000)
		(0.40223464 -0.17288997 0.00000000)
		(0.41899441 -0.15439495 0.00000000)
		(0.43575419 -0.13441877 0.00000000)
		(0.45251397 -0.11315307 0.00000000)
		(0.46927374 -0.09080186 0.00000000)
		(0.48603352 -0.06757956 0.00000000)
		(0.50279330 -0.04370895 0.00000000)
		(0.51955307 -0.01941902 0.00000000)
		(0.53631285 0.00505719 0.00000000)
		(0.55307263 0.02948489 0.00000000)
		(0.56983240 0.05362974 0.00000000)
		(0.58659218 0.07726009 0.00000000)
		(0.60335196 0.10014927 0.00000000)
		(0.62011173 0.12207769 0.00000000)
		(0.63687151 0.14283498 0.00000000)
		(0.65363128 0.16222201 0.00000000)
		(0.67039106 0.18005280 0.00000000)
		(0.68715084 0.19615628 0.00000000)
		(0.70391061 0.21037799 0.00000000)
		(0.72067039 0.22258147 0.00000000)
		(0.73743017 0.23264966 0.00000000)
		(0.75418994 0.24048598 0.00000000)
		(0.77094972 0.24601524 0.00000000)
		(0.78770950 0.24918441 0.00000000)
		(0.80446927 0.24996308 0.00000000)
		(0.82122905 0.24834377 0.00000000)
		(0.83798883 0.24434204 0.00000000)
		(0.85474860 0.23799625 0.00000000)
		(0.87150838 0.22936730 0.00000000)
		(0.88826816 0.21853796 0.00000000)
		(0.90502793 0.20561212 0.00000000)
		(0.92178771 0.19071378 0.00000000)
		(0.93854749 0.17398587 0.00000000)
		(0.95530726 0.15558886 0.00000000)
		(0.97206704 0.13569924 0.00000000)
		(0.98882682 0.11450782 0.00000000)
		(1.00558659 0.09221789 0.00000000)
		(1.02234637 0.06904328 0.00000000)
		(1.03910615 0.04520633 0.00000000)
		(1.05586592 0.02093569 0.00000000)
		(1.07262570 -0.00353578 0.00000000)
		(1.08938547 -0.02797334 0.00000000)
		(1.10614525 -0.05214254 0.00000000)
		(1.12290503 -0.07581152 0.00000000)
		(1.13966480 -0.09875322 0.00000000)
		(1.15642458 -0.12074755 0.00000000)
		(1.17318436 -0.14158351 0.00000000)
		(1.18994413 -0.16106122 0.00000000)
		(1.20670391 -0.17899383 0.00000000)
		(1.22346369 -0.19520929 0.00000000)
		(1.24022346 -0.20955205 0.00000000)
		(1.25698324 -0.22188451 0.00000000)
		(1.27374302 -0.23208838 0.00000000)
		(1.29050279 -0.24006575 0.00000000)
		(1.30726257 -0.24574009 0.00000000)
		(1.32402235 -0.24905698 0.00000000)
		(1.34078212 -0.24998460 0.00000000)
		(1.35754190 -0.24851403 0.00000000)
		(1.37430168 -0.24465940 0.00000000)
		(1.39106145 -0.23845768 0.00000000)
		(1.40782123 -0.22996836 0.00000000)
		(1.42458101 -0.21927289 0.00000000)
		(1.44134078 -0.20647387 0.00000000)
		(1.45810056 -0.19169408 0.00000000)
		(1.47486034 -0.17507532 0.00000000)
		(1.49162011 -0.15677701 0.00000000)
		(1.50837989 -0.13697468 0.00000000)
		(1.52513966 -0.11585832 0.00000000)
		(1.54189944 -0.09363050 0.00000000)
		(1.55865922 -0.07050445 0.00000000)
		(1.57541899 -0.04670203 0.00000000)
		(1.59217877 -0.02245159 0.00000000)
		(1.60893855 0.00201425 0.00000000)
		(1.62569832 0.02646075 0.00000000)
		(1.64245810 0.05065341 0.00000000)
		(1.65921788 0.07436014 0.00000000)
		(1.67597765 0.09735351 0.00000000)
		(1.69273743 0.11941294 0.00000000)
		(1.70949721 0.14032680 0.00000000)
		(1.72625698 0.15989447 0.00000000)
		(1.74301676 0.17792822 0.00000000)
		(1.75977654 0.19425506 0.00000000)
		(1.77653631 0.20871835 0.00000000)
		(1.79329609 0.22117934 0.00000000)
		(1.81005587 0.23151849 0.00000000)
		(1.82681564 0.23963662 0.00000000)
		(1.84357542 0.24545584 0.00000000)
		(1.86033520 0.24892033 0.00000000)
		(1.87709497 0.24999686 0.00000000)
		(1.89385475 0.24867509 0.00000000)
		(1.91061453 0.24496771 0.00000000)
		(1.92737430 0.23891028 0.00000000)
		(1.94413408 0.23056091 0.00000000)
		(1.96089385 0.21999970 0.00000000)
		(1.97765363 0.20732797 0.00000000)
		(1.99441341 0.19266729 0.00000000)
		(2.01117318 0.17615829 0.00000000)
		(2.02793296 0.15795935 0.00000000)
		(2.04469274 0.13824505 0.00000000)
		(2.06145251 0.11720454 0.00000000)
		(2.07821229 0.09503964 0.00000000)
		(2.09497207 0.07196301 0.00000000)
		(2.11173184 0.04819601 0.00000000)
		(2.12849162 0.02396665 0.00000000)
		(2.14525140 -0.00049263 0.00000000)
		(2.16201117 -0.02494718 0.00000000)
		(2.17877095 -0.04916241 0.00000000)
		(2.19553073 -0.07290601 0.00000000)
		(2.21229050 -0.09595019 0.00000000)
		(2.22905028 -0.11807390 0.00000000)
		(2.24581006 -0.13906489 0.00000000)
		(2.26256983 -0.15872180 0.00000000)
		(2.27932961 -0.17685603 0.00000000)
		(2.29608939 -0.19329363 0.00000000)
		(2.31284916 -0.20787691 0.00000000)
		(2.32960894 -0.22046597 0.00000000)
		(2.34636872 -0.23094003 0.00000000)
		(2.36312849 -0.23919861 0.00000000)
		(2.37988827 -0.24516249 0.00000000)
		(2.39664804 -0.24877446 0.00000000)
		(2.41340782 -0.24999986 0.00000000)
		(2.43016760 -0.24882693 0.00000000)
		(2.44692737 -0.24526694 0.00000000)
		(2.46368715 -0.23935402 0.00000000)
		(2.48044693 -0.23114491 0.00000000)
		(2.49720670 -0.22071836 0.00000000)
		(2.51396648 -0.20817440 0.00000000)
		(2.53072626 -0.19363335 0.00000000)
		(2.54748603 -0.17723473 0.00000000)
		(2.56424581 -0.15913583 0.00000000)
		(2.58100559 -0.13951030 0.00000000)
		(2.59776536 -0.11854641 0.00000000)
		(2.61452514 -0.09644527 0.00000000)
		(2.63128492 -0.07341890 0.00000000)
		(2.64804469 -0.04968819 0.00000000)
		(2.66480447 -0.02548082 0.00000000)
		(2.68156425 -0.00102900 0.00000000)
		(2.69832402 0.02343269 0.00000000)
		(2.71508380 0.04766958 0.00000000)
		(2.73184358 0.07144917 0.00000000)
		(2.74860335 0.09454332 0.00000000)
		(2.76536313 0.11673049 0.00000000)
		(2.78212291 0.13779784 0.00000000)
		(2.79888268 0.15754324 0.00000000)
		(2.81564246 0.17577729 0.00000000)
		(2.83240223 0.19232505 0.00000000)
		(2.84916201 0.20702778 0.00000000)
		(2.86592179 0.21974443 0.00000000)
		(2.88268156 0.23035301 0.00000000)
		(2.89944134 0.23875175 0.00000000)
		(2.91620112 0.24486007 0.00000000)
		(2.93296089 0.24861937 0.00000000)
		(2.95166480 0.24694158 0.00000000)
		(2.97036872 0.24544040 0.00000000)
		(2.98907263 0.24411583 0.00000000)
		(3.00777654 0.24296787 0.00000000)
		(3.02648045 0.24199652 0.00000000)
		(3.04518436 0.24120177 0.00000000)
		(3.06388827 0.24058364 0.00000000)
		(3.08259218 0.24014212 0.00000000)
		(3.10129609 0.23987720 0.00000000)
		(3.12000000 0.23978890 0.00000000)
		(3.14000000 0.23978890 0.00000000)
		(3.16000000 0.23978890 0.00000000)
		(3.18000000 0.23978890 0.00000000)
		(3.20000000 0.23978890 0.00000000)
		(3.22000000 0.23978890 0.00000000)
		(3.24000000 0.23978890 0.00000000)
		(3.26000000 0.23978890 0.00000000)
		(3.28000000 0.23978890 0.00000000)
		(3.30000000 0.23978890 0.00000000)
		(3.32000000 0.23978890 0.00000000)
		(3.34000000 0.23978890 0.00000000)
		(3.36000000 0.23978890 0.00000000)
		(3.38000000 0.23978890 0.00000000)
		(3.40000000 0.23978890 0.00000000)
		(3.42000000 0.23978890 0.00000000)
		(3.44000000 0.23978890 0.00000000)
		(3.46000000 0.23978890 0.00000000)
		(3.48000000 0.23978890 0.00000000)
		(3.50000000 0.23978890 0.00000000)
		(3.52000000 0.23978890 0.00000000)
		(3.54000000 0.23978890 0.00000000)
		(3.56000000 0.23978890 0.00000000)
		(3.58000000 0.23978890 0.00000000)
		(3.60000000 0.23978890 0.00000000)
		(3.62000000 0.23978890 0.00000000)
		(3.64000000 0.23978890 0.00000000)
		(3.66000000 0.23978890 0.00000000)
		(3.68000000 0.23978890 0.00000000)
		(3.70000000 0.23978890 0.00000000)
		(3.72000000 0.23978890 0.00000000)
		(3.74000000 0.23978890 0.00000000)
		(3.76000000 0.23978890 0.00000000)
		(3.78000000 0.23978890 0.00000000)
		(3.80000000 0.23978890 0.00000000)
		(3.82000000 0.23978890 0.00000000)
		(3.84000000 0.23978890 0.00000000)
		(3.86000000 0.23978890 0.00000000)
		(3.88000000 0.23978890 0.00000000)
		(3.90000000 0.23978890 0.00000000)
		(3.92000000 0.23978890 0.00000000)
		(3.94000000 0.23978890 0.00000000)
		(3.96000000 0.23978890 0.00000000)
		(3.98000000 0.23978890 0.00000000)
		(4.00000000 0.23978890 0.00000000)
	)
	polyLine 4 5
	(
		(-1.00000000 -0.00657841 0.10000000)
		(-0.98000000 -0.00657841 0.10000000)
		(-0.96000000 -0.00657841 0.10000000)
		(-0.94000000 -0.00657841 0.10000000)
		(-0.92000000 -0.00657841 0.10000000)
		(-0.90000000 -0.00657841 0.10000000)
		(-0.88000000 -0.00657841 0.10000000)
		(-0.86000000 -0.00657841 0.10000000)
		(-0.84000000 -0.00657841 0.10000000)
		(-0.82000000 -0.00657841 0.10000000)
		(-0.80000000 -0.00657841 0.10000000)
		(-0.78000000 -0.00657841 0.10000000)
		(-0.76000000 -0.00657841 0.10000000)
		(-0.74000000 -0.00657841 0.10000000)
		(-0.72000000 -0.00657841 0.10000000)
		(-0.70000000 -0.00657841 0.10000000)
		(-0.68000000 -0.00657841 0.10000000)
		(-0.66000000 -0.00657841 0.10000000)
		(-0.64000000 -0.00657841 0.10000000)
		(-0.62000000 -0.00657841 0.10000000)
		(-0.60000000 -0.00657841 0.10000000)
		(-0.58000000 -0.00657841 0.10000000)
		(-0.56000000 -0.00657841 0.10000000)
		(-0.54000000 -0.00657841 0.10000000)
		(-0.52000000 -0.00657841 0.10000000)
		(-0.50000000 -0.00657841 0.10000000)
		(-0.48000000 -0.00657841 0.10000000)
		(-0.46000000 -0.00657841 0.10000000)
		(-0.44000000 -0.00657841 0.10000000)
		(-0.42000000 -0.00657841 0.10000000)
		(-0.40000000 -0.00657841 0.10000000)
		(-0.38000000 -0.00657841 0.10000000)
		(-0.36000000 -0.00657841 0.10000000)
		(-0.34000000 -0.00657841 0.10000000)
		(-0.32000000 -0.00657841 0.10000000)
		(-0.30000000 -0.00657841 0.10000000)
		(-0.28000000 -0.00657841 0.10000000)
		(-0.26000000 -0.00657841 0.10000000)
		(-0.24000000 -0.00657841 0.10000000)
		(-0.22000000 -0.00657841 0.10000000)
		(-0.20000000 -0.00657841 0.10000000)
		(-0.18000000 -0.00657841 0.10000000)
		(-0.16000000 -0.00657841 0.10000000)
		(-0.14000000 -0.00657841 0.10000000)
		(-0.12000000 -0.00657841 0.10000000)
		(-0.10000000 -0.00657841 0.10000000)
		(-0.08162011 -0.00774666 0.10000000)
		(-0.06324022 -0.01125141 0.10000000)
		(-0.04486034 -0.01709265 0.10000000)
		(-0.02648045 -0.02527040 0.10000000)
		(-0.00810056 -0.03578464 0.10000000)
		(0.01027933 -0.04863537 0.10000000)
		(0.02865922 -0.06382261 0.10000000)
		(0.04703911 -0.08134634 0.10000000)
		(0.06541899 -0.10120657 0.10000000)
		(0.08379888 -0.12340330 0.10000000)
		(0.10055866 -0.14408115 0.10000000)
		(0.11731844 -0.16337678 0.10000000)
		(0.13407821 -0.18110510 0.10000000)
		(0.15083799 -0.19709601 0.10000000)
		(0.16759777 -0.21119613 0.10000000)
		(0.18435754 -0.22327018 0.10000000)
		(0.20111732 -0.23320233 0.10000000)
		(0.21787709 -0.24089731 0.10000000)
		(0.23463687 -0.24628128 0.10000000)
		(0.25139665 -0.24930261 0.10000000)
		(0.26815642 -0.24993230 0.10000000)
		(0.28491620 -0.24816431 0.10000000)
		(0.30167598 -0.24401562 0.10000000)
		(0.31843575 -0.23752601 0.10000000)
		(0.33519553 -0.22875774 0.10000000)
		(0.35195531 -0.21779493 0.10000000)
		(0.36871508 -0.20474275 0.10000000)
		(0.38547486 -0.18972641 0.10000000)
		(0.40223464 -0.17288997 0.10000000)
		(0.41899441 -0.15439495 0.10000000)
		(0.43575419 -0.13441877 0.10000000)
		(0.45251397 -0.11315307 0.10000000)
		(0.46927374 -0.09080186 0.10000000)
		(0.48603352 -0.06757956 0.10000000)
		(0.50279330 -0.04370895 0.10000000)
		(0.51955307 -0.01941902 0.10000000)
		(0.53631285 0.00505719 0.10000000)
		(0.55307263 0.02948489 0.10000000)
		(0.56983240 0.05362974 0.10000000)
		(0.58659218 0.07726009 0.10000000)
		(0.60335196 0.10014927 0.10000000)
		(0.62011173 0.12207769 0.10000000)
		(0.63687151 0.14283498 0.10000000)
		(0.65363128 0.16222201 0.10000000)
		(0.67039106 0.18005280 0.10000000)
		(0.68715084 0.19615628 0.10000000)
		(0.70391061 0.21037799 0.10000000)
		(0.72067039 0.22258147 0.10000000)
		(0.73743017 0.23264966 0.10000000)
		(0.75418994 0.24048598 0.10000000)
		(0.77094972 0.24601524 0.10000000)
		(0.78770950 0.24918441 0.10000000)
		(0.80446927 0.24996308 0.10000000)
		(0.82122905 0.24834377 0.10000000)
		(0.83798883 0.24434204 0.10000000)
		(0.85474860 0.23799625 0.10000000)
		(0.87150838 0.22936730 0.10000000)
		(0.88826816 0.21853796 0.10000000)
		(0.90502793 0.20561212 0.10000000)
		(0.92178771 0.19071378 0.10000000)
		(0.93854749 0.17398587 0.10000000)
		(0.95530726 0.15558886 0.10000000)
		(0.97206704 0.13569924 0.10000000)
		(0.98882682 0.11450782 0.10000000)
		(1.00558659 0.09221789 0.10000000)
		(1.02234637 0.06904328 0.10000000)
		(1.03910615 0.04520633 0.10000000)
		(1.05586592 0.02093569 0.10000000)
		(1.07262570 -0.00353578 0.10000000)
		(1.08938547 -0.02797334 0.10000000)
		(1.10614525 -0.05214254 0.10000000)
		(1.12290503 -0.07581152 0.10000000)
		(1.13966480 -0.09875322 0.10000000)
		(1.15642458 -0.12074755 0.10000000)
		(1.17318436 -0.14158351 0.10000000)
		(1.18994413 -0.16106122 0.10000000)
		(1.20670391 -0.17899383 0.10000000)
		(1.22346369 -0.19520929 0.10000000)
		(1.24022346 -0.20955205 0.10000000)
		(1.25698324 -0.22188451 0.10000000)
		(1.27374302 -0.23208838 0.10000000)
		(1.29050279 -0.24006575 0.10000000)
		(1.30726257 -0.24574009 0.10000000)
		(1.32402235 -0.24905698 0.10000000)
		(1.34078212 -0.24998460 0.10000000)
		(1.35754190 -0.24851403 0.10000000)
		(1.37430168 -0.24465940 0.10000000)
		(1.39106145 -0.23845768 0.10000000)
		(1.40782123 -0.22996836 0.10000000)
		(1.42458101 -0.21927289 0.10000000)
		(1.44134078 -0.20647387 0.10000000)
		(1.45810056 -0.19169408 0.10000000)
		(1.47486034 -0.17507532 0.10000000)
		(1.49162011 -0.15677701 0.10000000)
		(1.50837989 -0.13697468 0.10000000)
		(1.52513966 -0.11585832 0.10000000)
		(1.54189944 -0.09363050 0.10000000)
		(1.55865922 -0.07050445 0.10000000)
		(1.57541899 -0.04670203 0.10000000)
		(1.59217877 -0.02245159 0.10000000)
		(1.60893855 0.00201425 0.10000000)
		(1.62569832 0.02646075 0.10000000)
		(1.64245810 0.05065341 0.10000000)
		(1.65921788 0.07436014 0.10000000)
		(1.67597765 0.09735351 0.10000000)
		(1.69273743 0.11941294 0.10000000)
		(1.70949721 0.14032680 0.10000000)
		(1.72625698 0.15989447 0.10000000)
		(1.74301676 0.17792822 0.10000000)
		(1.75977654 0.19425506 0.10000000)
		(1.77653631 0.20871835 0.10000000)
		(1.79329609 0.22117934 0.10000000)
		(1.81005587 0.23151849 0.10000000)
		(1.82681564 0.23963662 0.10000000)
		(1.84357542 0.24545584 0.10000000)
		(1.86033520 0.24892033 0.10000000)
		(1.87709497 0.24999686 0.10000000)
		(1.89385475 0.24867509 0.10000000)
		(1.91061453 0.24496771 0.10000000)
		(1.92737430 0.23891028 0.10000000)
		(1.94413408 0.23056091 0.10000000)
		(1.96089385 0.21999970 0.10000000)
		(1.97765363 0.20732797 0.10000000)
		(1.99441341 0.19266729 0.10000000)
		(2.01117318 0.17615829 0.10000000)
		(2.02793296 0.15795935 0.10000000)
		(2.04469274 0.13824505 0.10000000)
		(2.06145251 0.11720454 0.10000000)
		(2.07821229 0.09503964 0.10000000)
		(2.09497207 0.07196301 0.10000000)
		(2.11173184 0.04819601 0.10000000)
		(2.12849162 0.02396665 0.10000000)
		(2.14525140 -0.00049263 0.10000000)
		(2.16201117 -0.02494718 0.10000000)
		(2.17877095 -0.04916241 0.10000000)
		(2.19553073 -0.07290601 0.10000000)
		(2.21229050 -0.09595019 0.10000000)
		(2.22905028 -0.11807390 0.10000000)
		(2.24581006 -0.13906489 0.10000000)
		(2.26256983 -0.15872180 0.10000000)
		(2.27932961 -0.17685603 0.10000000)
		(2.29608939 -0.19329363 0.10000000)
		(2.31284916 -0.20787691 0.10000000)
		(2.32960894 -0.22046597 0.10000000)
		(2.34636872 -0.23094003 0.10000000)
		(2.36312849 -0.23919861 0.10000000)
		(2.37988827 -0.24516249 0.10000000)
		(2.39664804 -0.24877446 0.10000000)
		(2.41340782 -0.24999986 0.10000000)
		(2.43016760 -0.24882693 0.10000000)
		(2.44692737 -0.24526694 0.10000000)
		(2.46368715 -0.23935402 0.10000000)
		(2.48044693 -0.23114491 0.10000000)
		(2.49720670 -0.22071836 0.10000000)
		(2.51396648 -0.20817440 0.10000000)
		(2.53072626 -0.19363335 0.10000000)
		(2.54748603 -0.17723473 0.10000000)
		(2.56424581 -0.15913583 0.10000000)
		(2.58100559 -0.13951030 0.10000000)
		(2.59776536 -0.11854641 0.10000000)
		(2.61452514 -0.09644527 0.10000000)
		(2.63128492 -0.07341890 0.10000000)
		(2.64804469 -0.04968819 0.10000000)
		(2.66480447 -0.02548082 0.10000000)
		(2.68156425 -0.00102900 0.10000000)
		(2.69832402 0.02343269 0.10000000)
		(2.71508380 0.04766958 0.10000000)
		(2.73184358 0.07144917 0.10000000)
		(2.74860335 0.09454332 0.10000000)
		(2.76536313 0.11673049 0.10000000)
		(2.78212291 0.13779784 0.10000000)
		(2.79888268 0.15754324 0.10000000)
		(2.81564246 0.17577729 0.10000000)
		(2.83240223 0.19232505 0.10000000)
		(2.84916201 0.20702778 0.10000000)
		(2.86592179 0.21974443 0.10000000)
		(2.88268156 0.23035301 0.10000000)
		(2.89944134 0.23875175 0.10000000)
		(2.91620112 0.24486007 0.10000000)
		(2.93296089 0.24861937 0.10000000)
		(2.95166480 0.24694158 0.10000000)
		(2.97036872 0.24544040 0.10000000)
		(2.98907263 0.24411583 0.10000000)
		(3.00777654 0.24296787 0.10000000)
		(3.02648045 0.24199652 0.10000000)
		(3.04518436 0.24120177 0.10000000)
		(3.06388827 0.24058364 0.10000000)
		(3.08259218 0.24014212 0.10000000)
		(3.10129609 0.23987720 0.10000000)
		(3.12000000 0.23978890 0.10000000)
		(3.14000000 0.23978890 0.10000000)
		(3.16000000 0.23978890 0.10000000)
		(3.18000000 0.23978890 0.10000000)
		(3.20000000 0.23978890 0.10000000)
		(3.22000000 0.23978890 0.10000000)
		(3.24000000 0.23978890 0.10000000)
		(3.26000000 0.23978890 0.10000000)
		(3.28000000 0.23978890 0.10000000)
		(3.30000000 0.23978890 0.10000000)
		(3.32000000 0.23978890 0.10000000)
		(3.34000000 0.23978890 0.10000000)
		(3.36000000 0.23978890 0.10000000)
		(3.38000000 0.23978890 0.10000000)
		(3.40000000 0.23978890 0.10000000)
		(3.42000000 0.23978890 0.10000000)
		(3.44000000 0.23978890 0.10000000)
		(3.46000000 0.23978890 0.10000000)
		(3.48000000 0.23978890 0.10000000)
		(3.50000000 0.23978890 0.10000000)
		(3.52000000 0.23978890 0.10000000)
		(3.54000000 0.23978890 0.10000000)
		(3.56000000 0.23978890 0.10000000)
		(3.58000000 0.23978890 0.10000000)
		(3.60000000 0.23978890 0.10000000)
		(3.62000000 0.23978890 0.10000000)
		(3.64000000 0.23978890 0.10000000)
		(3.66000000 0.23978890 0.10000000)
		(3.68000000 0.23978890 0.10000000)
		(3.70000000 0.23978890 0.10000000)
		(3.72000000 0.23978890 0.10000000)
		(3.74000000 0.23978890 0.10000000)
		(3.76000000 0.23978890 0.10000000)
		(3.78000000 0.23978890 0.10000000)
		(3.80000000 0.23978890 0.10000000)
		(3.82000000 0.23978890 0.10000000)
		(3.84000000 0.23978890 0.10000000)
		(3.86000000 0.23978890 0.10000000)
		(3.88000000 0.23978890 0.10000000)
		(3.90000000 0.23978890 0.10000000)
		(3.92000000 0.23978890 0.10000000)
		(3.94000000 0.23978890 0.10000000)
		(3.96000000 0.23978890 0.10000000)
		(3.98000000 0.23978890 0.10000000)
		(4.00000000 0.23978890 0.10000000)
	)
	polyLine 3 2
	(
		(-1.00000000 0.49342159 0.00000000)
		(-0.98000000 0.49335054 0.00000000)
		(-0.96000000 0.49327950 0.00000000)
		(-0.94000000 0.49320845 0.00000000)
		(-0.92000000 0.49313741 0.00000000)
		(-0.90000000 0.49306636 0.00000000)
		(-0.88000000 0.49299532 0.00000000)
		(-0.86000000 0.49292427 0.00000000)
		(-0.84000000 0.49285323 0.00000000)
		(-0.82000000 0.49278218 0.00000000)
		(-0.80000000 0.49271113 0.00000000)
		(-0.78000000 0.49264009 0.00000000)
		(-0.76000000 0.49256904 0.00000000)
		(-0.74000000 0.49249800 0.00000000)
		(-0.72000000 0.49242695 0.00000000)
		(-0.70000000 0.49235591 0.00000000)
		(-0.68000000 0.49228486 0.00000000)
		(-0.66000000 0.49221382 0.00000000)
		(-0.64000000 0.49214277 0.00000000)
		(-0.62000000 0.49207173 0.00000000)
		(-0.60000000 0.49200068 0.00000000)
		(-0.58000000 0.49192964 0.00000000)
		(-0.56000000 0.49185859 0.00000000)
		(-0.54000000 0.49178755 0.00000000)
		(-0.52000000 0.49171650 0.00000000)
		(-0.50000000 0.49164546 0.00000000)
		(-0.48000000 0.49157441 0.00000000)
		(-0.46000000 0.49150337 0.00000000)
		(-0.44000000 0.49143232 0.00000000)
		(-0.42000000 0.49136128 0.00000000)
		(-0.40000000 0.49129023 0.00000000)
		(-0.38000000 0.49121918 0.00000000)
		(-0.36000000 0.49114814 0.00000000)
		(-0.34000000 0.49107709 0.00000000)
		(-0.32000000 0.49100605 0.00000000)
		(-0.30000000 0.49093500 0.00000000)
		(-0.28000000 0.49086396 0.00000000)
		(-0.26000000 0.49079291 0.00000000)
		(-0.24000000 0.49072187 0.00000000)
		(-0.22000000 0.49065082 0.00000000)
		(-0.20000000 0.49057978 0.00000000)
		(-0.18000000 0.49050873 0.00000000)
		(-0.16000000 0.49043769 0.00000000)
		(-0.14000000 0.49036664 0.00000000)
		(-0.12000000 0.49029560 0.00000000)
		(-0.10000000 0.49022455 0.00000000)
		(-0.08162011 0.49137099 0.00000000)
		(-0.06324022 0.48828641 0.00000000)
		(-0.04486034 0.48097081 0.00000000)
		(-0.02648045 0.46942420 0.00000000)
		(-0.00810056 0.45364657 0.00000000)
		(0.01027933 0.43363792 0.00000000)
		(0.02865922 0.40939825 0.00000000)
		(0.04703911 0.38092757 0.00000000)
		(0.06541899 0.34822587 0.00000000)
		(0.08379888 0.31129316 0.00000000)
		(0.10055866 0.27967284 0.00000000)
		(0.11731844 0.25016619 0.00000000)
		(0.13407821 0.22305627 0.00000000)
		(0.15083799 0.19860315 0.00000000)
		(0.16759777 0.17704142 0.00000000)
		(0.18435754 0.15857793 0.00000000)
		(0.20111732 0.14338981 0.00000000)
		(0.21787709 0.13162274 0.00000000)
		(0.23463687 0.12338964 0.00000000)
		(0.25139665 0.11876946 0.00000000)
		(0.26815642 0.11780654 0.00000000)
		(0.28491620 0.12051012 0.00000000)
		(0.30167598 0.12685426 0.00000000)
		(0.31843575 0.13677809 0.00000000)
		(0.33519553 0.15018642 0.00000000)
		(0.35195531 0.16695062 0.00000000)
		(0.36871508 0.18690986 0.00000000)
		(0.38547486 0.20987266 0.00000000)
		(0.40223464 0.23561874 0.00000000)
		(0.41899441 0.26390111 0.00000000)
		(0.43575419 0.29444844 0.00000000)
		(0.45251397 0.32696769 0.00000000)
		(0.46927374 0.36114690 0.00000000)
		(0.48603352 0.39665816 0.00000000)
		(0.50279330 0.43316081 0.00000000)
		(0.51955307 0.47030466 0.00000000)
		(0.53631285 0.50773340 0.00000000)
		(0.55307263 0.54508794 0.00000000)
		(0.56983240 0.58200995 0.00000000)
		(0.58659218 0.61814520 0.00000000)
		(0.60335196 0.65314706 0.00000000)
		(0.62011173 0.68667973 0.00000000)
		(0.63687151 0.71842153 0.00000000)
		(0.65363128 0.74806794 0.00000000)
		(0.67039106 0.77533456 0.00000000)
		(0.68715084 0.79995982 0.00000000)
		(0.70391061 0.82170748 0.00000000)
		(0.72067039 0.84036890 0.00000000)
		(0.73743017 0.85576506 0.00000000)
		(0.75418994 0.86774826 0.00000000)
		(0.77094972 0.87620355 0.00000000)
		(0.78770950 0.88104980 0.00000000)
		(0.80446927 0.88224052 0.00000000)
		(0.82122905 0.87976431 0.00000000)
		(0.83798883 0.87364490 0.00000000)
		(0.85474860 0.86394100 0.00000000)
		(0.87150838 0.85074571 0.00000000)
		(0.88826816 0.83418561 0.00000000)
		(0.90502793 0.81441957 0.00000000)
		(0.92178771 0.79163721 0.00000000)
		(0.93854749 0.76605709 0.00000000)
		(0.95530726 0.73792461 0.00000000)
		(0.97206704 0.70750964 0.00000000)
		(0.98882682 0.67510397 0.00000000)
		(1.00558659 0.64101848 0.00000000)
		(1.02234637 0.60558016 0.00000000)
		(1.03910615 0.56912897 0.00000000)
		(1.05586592 0.53201461 0.00000000)
		(1.07262570 0.49459312 0.00000000)
		(1.08938547 0.45722350 0.00000000)
		(1.10614525 0.42026426 0.00000000)
		(1.12290503 0.38406994 0.00000000)
		(1.13966480 0.34898777 0.00000000)
		(1.15642458 0.31535430 0.00000000)
		(1.17318436 0.28349220 0.00000000)
		(1.18994413 0.25370712 0.00000000)
		(1.20670391 0.22628480 0.00000000)
		(1.22346369 0.20148831 0.00000000)
		(1.24022346 0.17955553 0.00000000)
		(1.25698324 0.16069688 0.00000000)
		(1.27374302 0.14509325 0.00000000)
		(1.29050279 0.13289435 0.00000000)
		(1.30726257 0.12421721 0.00000000)
		(1.32402235 0.11914506 0.00000000)
		(1.34078212 0.11772657 0.00000000)
		(1.35754190 0.11997533 0.00000000)
		(1.37430168 0.12586979 0.00000000)
		(1.39106145 0.13535339 0.00000000)
		(1.40782123 0.14833515 0.00000000)
		(1.42458101 0.16469054 0.00000000)
		(1.44134078 0.18426265 0.00000000)
		(1.45810056 0.20686372 0.00000000)
		(1.47486034 0.23227693 0.00000000)
		(1.49162011 0.26025849 0.00000000)
		(1.50837989 0.29053996 0.00000000)
		(1.52513966 0.32283085 0.00000000)
		(1.54189944 0.35682137 0.00000000)
		(1.55865922 0.39218544 0.00000000)
		(1.57541899 0.42858382 0.00000000)
		(1.59217877 0.46566731 0.00000000)
		(1.60893855 0.50308016 0.00000000)
		(1.62569832 0.54046346 0.00000000)
		(1.64245810 0.57745859 0.00000000)
		(1.65921788 0.61371063 0.00000000)
		(1.67597765 0.64887181 0.00000000)
		(1.69273743 0.68260483 0.00000000)
		(1.70949721 0.71458606 0.00000000)
		(1.72625698 0.74450870 0.00000000)
		(1.74301676 0.77208570 0.00000000)
		(1.75977654 0.79705249 0.00000000)
		(1.77653631 0.81916958 0.00000000)
		(1.79329609 0.83822478 0.00000000)
		(1.81005587 0.85403529 0.00000000)
		(1.82681564 0.86644943 0.00000000)
		(1.84357542 0.87534811 0.00000000)
		(1.86033520 0.88064597 0.00000000)
		(1.87709497 0.88229218 0.00000000)
		(1.89385475 0.88027095 0.00000000)
		(1.91061453 0.87460166 0.00000000)
		(1.92737430 0.86533871 0.00000000)
		(1.94413408 0.85257096 0.00000000)
		(1.96089385 0.83642089 0.00000000)
		(1.97765363 0.81704344 0.00000000)
		(1.99441341 0.79462449 0.00000000)
		(2.01117318 0.76937913 0.00000000)
		(2.02793296 0.74154953 0.00000000)
		(2.04469274 0.71140267 0.00000000)
		(2.06145251 0.67922777 0.00000000)
		(2.07821229 0.64533348 0.00000000)
		(2.09497207 0.61004496 0.00000000)
		(2.11173184 0.57370075 0.00000000)
		(2.12849162 0.53664951 0.00000000)
		(2.14525140 0.49924667 0.00000000)
		(2.16201117 0.46185107 0.00000000)
		(2.17877095 0.42482144 0.00000000)
		(2.19553073 0.38851301 0.00000000)
		(2.21229050 0.35327412 0.00000000)
		(2.22905028 0.31944281 0.00000000)
		(2.24581006 0.28734364 0.00000000)
		(2.26256983 0.25728454 0.00000000)
		(2.27932961 0.22955389 0.00000000)
		(2.29608939 0.20441770 0.00000000)
		(2.31284916 0.18211713 0.00000000)
		(2.32960894 0.16286610 0.00000000)
		(2.34636872 0.14684929 0.00000000)
		(2.36312849 0.13422036 0.00000000)
		(2.37988827 0.12510047 0.00000000)
		(2.39664804 0.11957710 0.00000000)
		(2.41340782 0.11770323 0.00000000)
		(2.43016760 0.11949686 0.00000000)
		(2.44692737 0.12494076 0.00000000)
		(2.46368715 0.13398272 0.00000000)
		(2.48044693 0.14653599 0.00000000)
		(2.49720670 0.16248014 0.00000000)
		(2.51396648 0.18166222 0.00000000)