/*--------------------------------*- C++ -*----------------------------------*\\
/*--------------------------------*- C++ -*----------------------------------*\\
| =========                 |                                                 |
| \\\\      /  F ield         | OpenFOAM: The Open Source CFD Toolbox           |
|  \\\\    /   O peration     | Version:  v2012                                 |
|   \\\\  /    A nd           | Website:  www.openfoam.com                      |
|    \\\\/     M anipulation  |                                                 |
\\*---------------------------------------------------------------------------*/
FoamFile
{
    version     2.0;
    format      ascii;
    class       dictionary;
    object      blockMeshDict;
}
// * * * * * * * * * * * * * * * * * * * * * * * * * * * * * * * * * * * * * //

scale   0.01;

xmin -1;
xmax 5;
ymin 0;
ymax 0.5;
zmin 0;
zmax 0.1;

vertices
(
    (-1.00000000 -0.15709426 0.00000000)
    (4.00000000 0.21947411 0.00000000)
    (4.00000000 0.71947411 0.00000000)
    (-1.00000000 0.34290574 0.00000000)
    (-1.00000000 -0.15709426 0.10000000)
    (4.00000000 0.21947411 0.10000000)
    (4.00000000 0.71947411 0.10000000)
    (-1.00000000 0.34290574 0.10000000)
);

blocks
(
    hex (0 1 2 3 4 5 6 7) (200 20 1) simpleGrading (1 1 1)
);

edges
(
	polyLine 0 1
	(
		(-1.00000000 -0.15709426 0.00000000)
		(-0.98000000 -0.15709426 0.00000000)
		(-0.96000000 -0.15709426 0.00000000)
		(-0.94000000 -0.15709426 0.00000000)
		(-0.92000000 -0.15709426 0.00000000)
		(-0.90000000 -0.15709426 0.00000000)
		(-0.88000000 -0.15709426 0.00000000)
		(-0.86000000 -0.15709426 0.00000000)
		(-0.84000000 -0.15709426 0.00000000)
		(-0.82000000 -0.15709426 0.00000000)
		(-0.80000000 -0.15709426 0.00000000)
		(-0.78000000 -0.15709426 0.00000000)
		(-0.76000000 -0.15709426 0.00000000)
		(-0.74000000 -0.15709426 0.00000000)
		(-0.72000000 -0.15709426 0.00000000)
		(-0.70000000 -0.15709426 0.00000000)
		(-0.68000000 -0.15709426 0.00000000)
		(-0.66000000 -0.15709426 0.00000000)
		(-0.64000000 -0.15709426 0.00000000)
		(-0.62000000 -0.15709426 0.00000000)
		(-0.60000000 -0.15709426 0.00000000)
		(-0.58000000 -0.15709426 0.00000000)
		(-0.56000000 -0.15709426 0.00000000)
		(-0.54000000 -0.15709426 0.00000000)
		(-0.52000000 -0.15709426 0.00000000)
		(-0.50000000 -0.15709426 0.00000000)
		(-0.48000000 -0.15709426 0.00000000)
		(-0.46000000 -0.15709426 0.00000000)
		(-0.44000000 -0.15709426 0.00000000)
		(-0.42000000 -0.15709426 0.00000000)
		(-0.40000000 -0.15709426 0.00000000)
		(-0.38000000 -0.15709426 0.00000000)
		(-0.36000000 -0.15709426 0.00000000)
		(-0.34000000 -0.15709426 0.00000000)
		(-0.32000000 -0.15709426 0.00000000)
		(-0.30000000 -0.15709426 0.00000000)
		(-0.28000000 -0.15709426 0.00000000)
		(-0.26000000 -0.15709426 0.00000000)
		(-0.24000000 -0.15709426 0.00000000)
		(-0.22000000 -0.15709426 0.00000000)
		(-0.20000000 -0.15709426 0.00000000)
		(-0.18000000 -0.15709426 0.00000000)
		(-0.16000000 -0.15709426 0.00000000)
		(-0.14000000 -0.15709426 0.00000000)
		(-0.12000000 -0.15709426 0.00000000)
		(-0.10000000 -0.15709426 0.00000000)
		(-0.08162011 -0.15756219 0.00000000)
		(-0.06324022 -0.15896598 0.00000000)
		(-0.04486034 -0.16130562 0.00000000)
		(-0.02648045 -0.16458112 0.00000000)
		(-0.00810056 -0.16879248 0.00000000)
		(0.01027933 -0.17393970 0.00000000)
		(0.02865922 -0.18002277 0.00000000)
		(0.04703911 -0.18704170 0.00000000)
		(0.06541899 -0.19499649 0.00000000)
		(0.08379888 -0.20388713 0.00000000)
		(0.10055866 -0.21151077 0.00000000)
		(0.11731844 -0.21849841 0.00000000)
		(0.13407821 -0.22482904 0.00000000)
		(0.15083799 -0.23048363 0.00000000)
		(0.16759777 -0.23544518 0.00000000)
		(0.18435754 -0.23969876 0.00000000)
		(0.20111732 -0.24323158 0.00000000)
		(0.21787709 -0.24603303 0.00000000)
		(0.23463687 -0.24809467 0.00000000)
		(0.25139665 -0.24941032 0.00000000)
		(0.26815642 -0.24997601 0.00000000)
		(0.28491620 -0.24979004 0.00000000)
		(0.30167598 -0.24885297 0.00000000)
		(0.31843575 -0.24716762 0.00000000)
		(0.33519553 -0.24473906 0.00000000)
		(0.35195531 -0.24157458 0.00000000)
		(0.36871508 -0.23768371 0.00000000)
		(0.38547486 -0.23307815 0.00000000)
		(0.40223464 -0.22777174 0.00000000)
		(0.41899441 -0.22178044 0.00000000)
		(0.43575419 -0.21512226 0.00000000)
		(0.45251397 -0.20781722 0.00000000)
		(0.46927374 -0.19988730 0.00000000)
		(0.48603352 -0.19135633 0.00000000)
		(0.50279330 -0.18224997 0.00000000)
		(0.51955307 -0.17259560 0.00000000)
		(0.53631285 -0.16242224 0.00000000)
		(0.55307263 -0.15176050 0.00000000)
		(0.56983240 -0.14064242 0.00000000)
		(0.58659218 -0.12910145 0.00000000)
		(0.60335196 -0.11717227 0.00000000)
		(0.62011173 -0.10489077 0.00000000)
		(0.63687151 -0.09229387 0.00000000)
		(0.65363128 -0.07941945 0.00000000)
		(0.67039106 -0.06630622 0.00000000)
		(0.68715084 -0.05299362 0.00000000)
		(0.70391061 -0.03952166 0.00000000)
		(0.72067039 -0.02593087 0.00000000)
		(0.73743017 -0.01226211 0.00000000)
		(0.75418994 0.00144352 0.00000000)
		(0.77094972 0.01514482 0.00000000)
		(0.78770950 0.02880057 0.00000000)
		(0.80446927 0.04236973 0.00000000)
		(0.82122905 0.05581148 0.00000000)
		(0.83798883 0.06908541 0.00000000)
		(0.85474860 0.08215161 0.00000000)
		(0.87150838 0.09497078 0.00000000)
		(0.88826816 0.10750438 0.00000000)
		(0.90502793 0.11971473 0.00000000)
		(0.92178771 0.13156510 0.00000000)
		(0.93854749 0.14301987 0.00000000)
		(0.95530726 0.15404459 0.00000000)
		(0.97206704 0.16460611 0.00000000)
		(0.98882682 0.17467267 0.00000000)
		(1.00558659 0.18421401 0.00000000)
		(1.02234637 0.19320143 0.00000000)
		(1.03910615 0.20160791 0.00000000)
		(1.05586592 0.20940817 0.00000000)
		(1.07262570 0.21657875 0.00000000)
		(1.08938547 0.22309810 0.00000000)
		(1.10614525 0.22894661 0.00000000)
		(1.12290503 0.23410670 0.00000000)
		(1.13966480 0.23856285 0.00000000)
		(1.15642458 0.24230166 0.00000000)
		(1.17318436 0.24531189 0.00000000)
		(1.18994413 0.24758448 0.00000000)
		(1.20670391 0.24911261 0.00000000)
		(1.22346369 0.24989168 0.00000000)
		(1.24022346 0.24991934 0.00000000)
		(1.25698324 0.24919551 0.00000000)
		(1.27374302 0.24772238 0.00000000)
		(1.29050279 0.24550436 0.00000000)
		(1.30726257 0.24254813 0.00000000)
		(1.32402235 0.23886258 0.00000000)
		(1.34078212 0.23445879 0.00000000)
		(1.35754190 0.22935000 0.00000000)
		(1.37430168 0.22355157 0.00000000)
		(1.39106145 0.21708094 0.00000000)
		(1.40782123 0.20995756 0.00000000)
		(1.42458101 0.20220286 0.00000000)
		(1.44134078 0.19384016 0.00000000)
		(1.45810056 0.18489459 0.00000000)
		(1.47486034 0.17539305 0.00000000)
		(1.49162011 0.16536413 0.00000000)
		(1.50837989 0.15483797 0.00000000)
		(1.52513966 0.14384622 0.00000000)
		(1.54189944 0.13242194 0.00000000)
		(1.55865922 0.12059947 0.00000000)
		(1.57541899 0.10841438 0.00000000)
		(1.59217877 0.09590329 0.00000000)
		(1.60893855 0.08310382 0.00000000)
		(1.62569832 0.07005447 0.00000000)
		(1.64245810 0.05679448 0.00000000)
		(1.65921788 0.04336370 0.00000000)
		(1.67597765 0.02980254 0.00000000)
		(1.69273743 0.01615176 0.00000000)
		(1.70949721 0.00245241 0.00000000)
		(1.72625698 -0.01125431 0.00000000)
		(1.74301676 -0.02492719 0.00000000)
		(1.75977654 -0.03852512 0.00000000)
		(1.77653631 -0.05200720 0.00000000)
		(1.79329609 -0.06533290 0.00000000)
		(1.81005587 -0.07846215 0.00000000)
		(1.82681564 -0.09135547 0.00000000)
		(1.84357542 -0.10397410 0.00000000)
		(1.86033520 -0.11628008 0.00000000)
		(1.87709497 -0.12823642 0.00000000)
		(1.89385475 -0.13980716 0.00000000)
		(1.91061453 -0.15095751 0.00000000)
		(1.92737430 -0.16165394 0.00000000)
		(1.94413408 -0.17186430 0.00000000)
		(1.96089385 -0.18155787 0.00000000)
		(1.97765363 -0.19070551 0.00000000)
		(1.99441341 -0.19927972 0.00000000)
		(2.01117318 -0.20725471 0.00000000)
		(2.02793296 -0.21460649 0.00000000)
		(2.04469274 -0.22131298 0.00000000)
		(2.06145251 -0.22735399 0.00000000)
		(2.07821229 -0.23271137 0.00000000)
		(2.09497207 -0.23736901 0.00000000)
		(2.11173184 -0.24131290 0.00000000)
		(2.12849162 -0.24453117 0.00000000)
		(2.14525140 -0.24701416 0.00000000)
		(2.16201117 -0.24875440 0.00000000)
		(2.17877095 -0.24974666 0.00000000)
		(2.19553073 -0.24998795 0.00000000)
		(2.21229050 -0.24947754 0.00000000)
		(2.22905028 -0.24821698 0.00000000)
		(2.24581006 -0.24621004 0.00000000)
		(2.26256983 -0.24346278 0.00000000)
		(2.27932961 -0.23998344 0.00000000)
		(2.29608939 -0.23578248 0.00000000)
		(2.31284916 -0.23087255 0.00000000)
		(2.32960894 -0.22526841 0.00000000)
		(2.34636872 -0.21898690 0.00000000)
		(2.36312849 -0.21204691 0.00000000)
		(2.37988827 -0.20446932 0.00000000)
		(2.39664804 -0.19627690 0.00000000)
		(2.41340782 -0.18749430 0.00000000)
		(2.43016760 -0.17814791 0.00000000)
		(2.44692737 -0.16826585 0.00000000)
		(2.46368715 -0.15787783 0.00000000)
		(2.48044693 -0.14701508 0.00000000)
		(2.49720670 -0.13571027 0.00000000)
		(2.51396648 -0.12399739 0.00000000)
		(2.53072626 -0.11191165 0.00000000)
		(2.54748603 -0.09948941 0.00000000)
		(2.56424581 -0.08676801 0.00000000)
		(2.58100559 -0.07378571 0.00000000)
		(2.59776536 -0.06058154 0.00000000)
		(2.61452514 -0.04719521 0.00000000)
		(2.63128492 -0.03366696 0.00000000)
		(2.64804469 -0.02003748 0.00000000)
		(2.66480447 -0.00634775 0.00000000)
		(2.68156425 0.00736107 0.00000000)
		(2.69832402 0.02104775 0.00000000)
		(2.71508380 0.03467115 0.00000000)
		(2.73184358 0.04819029 0.00000000)
		(2.74860335 0.06156453 0.00000000)
		(2.76536313 0.07475364 0.00000000)
		(2.78212291 0.08771798 0.00000000)
		(2.79888268 0.10041856 0.00000000)
		(2.81564246 0.11281719 0.00000000)
		(2.83240223 0.12487659 0.00000000)
		(2.84916201 0.13656049 0.00000000)
		(2.86592179 0.14783377 0.00000000)
		(2.88268156 0.15866252 0.00000000)
		(2.89944134 0.16901418 0.00000000)
		(2.91620112 0.17885764 0.00000000)
		(2.93296089 0.18816328 0.00000000)
		(2.95166480 0.19411234 0.00000000)
		(2.97036872 0.19943518 0.00000000)
		(2.98907263 0.20413180 0.00000000)
		(3.00777654 0.20820221 0.00000000)
		(3.02648045 0.21164640 0.00000000)
		(3.04518436 0.21446438 0.00000000)
		(3.06388827 0.21665614 0.00000000)
		(3.08259218 0.21822168 0.00000000)
		(3.10129609 0.21916100 0.00000000)
		(3.12000000 0.21947411 0.00000000)
		(3.14000000 0.21947411 0.00000000)
		(3.16000000 0.21947411 0.00000000)
		(3.18000000 0.21947411 0.00000000)
		(3.20000000 0.21947411 0.00000000)
		(3.22000000 0.21947411 0.00000000)
		(3.24000000 0.21947411 0.00000000)
		(3.26000000 0.21947411 0.00000000)
		(3.28000000 0.21947411 0.00000000)
		(3.30000000 0.21947411 0.00000000)
		(3.32000000 0.21947411 0.00000000)
		(3.34000000 0.21947411 0.00000000)
		(3.36000000 0.21947411 0.00000000)
		(3.38000000 0.21947411 0.00000000)
		(3.40000000 0.21947411 0.00000000)
		(3.42000000 0.21947411 0.00000000)
		(3.44000000 0.21947411 0.00000000)
		(3.46000000 0.21947411 0.00000000)
		(3.48000000 0.21947411 0.00000000)
		(3.50000000 0.21947411 0.00000000)
		(3.52000000 0.21947411 0.00000000)
		(3.54000000 0.21947411 0.00000000)
		(3.56000000 0.21947411 0.00000000)
		(3.58000000 0.21947411 0.00000000)
		(3.60000000 0.21947411 0.00000000)
		(3.62000000 0.21947411 0.00000000)
		(3.64000000 0.21947411 0.00000000)
		(3.66000000 0.21947411 0.00000000)
		(3.68000000 0.21947411 0.00000000)
		(3.70000000 0.21947411 0.00000000)
		(3.72000000 0.21947411 0.00000000)
		(3.74000000 0.21947411 0.00000000)
		(3.76000000 0.21947411 0.00000000)
		(3.78000000 0.21947411 0.00000000)
		(3.80000000 0.21947411 0.00000000)
		(3.82000000 0.21947411 0.00000000)
		(3.84000000 0.21947411 0.00000000)
		(3.86000000 0.21947411 0.00000000)
		(3.88000000 0.21947411 0.00000000)
		(3.90000000 0.21947411 0.00000000)
		(3.92000000 0.21947411 0.00000000)
		(3.94000000 0.21947411 0.00000000)
		(3.96000000 0.21947411 0.00000000)
		(3.98000000 0.21947411 0.00000000)
		(4.00000000 0.21947411 0.00000000)
	)
	polyLine 4 5
	(
		(-1.00000000 -0.15709426 0.10000000)
		(-0.98000000 -0.15709426 0.10000000)
		(-0.96000000 -0.15709426 0.10000000)
		(-0.94000000 -0.15709426 0.10000000)
		(-0.92000000 -0.15709426 0.10000000)
		(-0.90000000 -0.15709426 0.10000000)
		(-0.88000000 -0.15709426 0.10000000)
		(-0.86000000 -0.15709426 0.10000000)
		(-0.84000000 -0.15709426 0.10000000)
		(-0.82000000 -0.15709426 0.10000000)
		(-0.80000000 -0.15709426 0.10000000)
		(-0.78000000 -0.15709426 0.10000000)
		(-0.76000000 -0.15709426 0.10000000)
		(-0.74000000 -0.15709426 0.10000000)
		(-0.72000000 -0.15709426 0.10000000)
		(-0.70000000 -0.15709426 0.10000000)
		(-0.68000000 -0.15709426 0.10000000)
		(-0.66000000 -0.15709426 0.10000000)
		(-0.64000000 -0.15709426 0.10000000)
		(-0.62000000 -0.15709426 0.10000000)
		(-0.60000000 -0.15709426 0.10000000)
		(-0.58000000 -0.15709426 0.10000000)
		(-0.56000000 -0.15709426 0.10000000)
		(-0.54000000 -0.15709426 0.10000000)
		(-0.52000000 -0.15709426 0.10000000)
		(-0.50000000 -0.15709426 0.10000000)
		(-0.48000000 -0.15709426 0.10000000)
		(-0.46000000 -0.15709426 0.10000000)
		(-0.44000000 -0.15709426 0.10000000)
		(-0.42000000 -0.15709426 0.10000000)
		(-0.40000000 -0.15709426 0.10000000)
		(-0.38000000 -0.15709426 0.10000000)
		(-0.36000000 -0.15709426 0.10000000)
		(-0.34000000 -0.15709426 0.10000000)
		(-0.32000000 -0.15709426 0.10000000)
		(-0.30000000 -0.15709426 0.10000000)
		(-0.28000000 -0.15709426 0.10000000)
		(-0.26000000 -0.15709426 0.10000000)
		(-0.24000000 -0.15709426 0.10000000)
		(-0.22000000 -0.15709426 0.10000000)
		(-0.20000000 -0.15709426 0.10000000)
		(-0.18000000 -0.15709426 0.10000000)
		(-0.16000000 -0.15709426 0.10000000)
		(-0.14000000 -0.15709426 0.10000000)
		(-0.12000000 -0.15709426 0.10000000)
		(-0.10000000 -0.15709426 0.10000000)
		(-0.08162011 -0.15756219 0.10000000)
		(-0.06324022 -0.15896598 0.10000000)
		(-0.04486034 -0.16130562 0.10000000)
		(-0.02648045 -0.16458112 0.10000000)
		(-0.00810056 -0.16879248 0.10000000)
		(0.01027933 -0.17393970 0.10000000)
		(0.02865922 -0.18002277 0.10000000)
		(0.04703911 -0.18704170 0.10000000)
		(0.06541899 -0.19499649 0.10000000)
		(0.08379888 -0.20388713 0.10000000)
		(0.10055866 -0.21151077 0.10000000)
		(0.11731844 -0.21849841 0.10000000)
		(0.13407821 -0.22482904 0.10000000)
		(0.15083799 -0.23048363 0.10000000)
		(0.16759777 -0.23544518 0.10000000)
		(0.18435754 -0.23969876 0.10000000)
		(0.20111732 -0.24323158 0.10000000)
		(0.21787709 -0.24603303 0.10000000)
		(0.23463687 -0.24809467 0.10000000)
		(0.25139665 -0.24941032 0.10000000)
		(0.26815642 -0.24997601 0.10000000)
		(0.28491620 -0.24979004 0.10000000)
		(0.30167598 -0.24885297 0.10000000)
		(0.31843575 -0.24716762 0.10000000)
		(0.33519553 -0.24473906 0.10000000)
		(0.35195531 -0.24157458 0.10000000)
		(0.36871508 -0.23768371 0.10000000)
		(0.38547486 -0.23307815 0.10000000)
		(0.40223464 -0.22777174 0.10000000)
		(0.41899441 -0.22178044 0.10000000)
		(0.43575419 -0.21512226 0.10000000)
		(0.45251397 -0.20781722 0.10000000)
		(0.46927374 -0.19988730 0.10000000)
		(0.48603352 -0.19135633 0.10000000)
		(0.50279330 -0.18224997 0.10000000)
		(0.51955307 -0.17259560 0.10000000)
		(0.53631285 -0.16242224 0.10000000)
		(0.55307263 -0.15176050 0.10000000)
		(0.56983240 -0.14064242 0.10000000)
		(0.58659218 -0.12910145 0.10000000)
		(0.60335196 -0.11717227 0.10000000)
		(0.62011173 -0.10489077 0.10000000)
		(0.63687151 -0.09229387 0.10000000)
		(0.65363128 -0.07941945 0.10000000)
		(0.67039106 -0.06630622 0.10000000)
		(0.68715084 -0.05299362 0.10000000)
		(0.70391061 -0.03952166 0.10000000)
		(0.72067039 -0.02593087 0.10000000)
		(0.73743017 -0.01226211 0.10000000)
		(0.75418994 0.00144352 0.10000000)
		(0.77094972 0.01514482 0.10000000)
		(0.78770950 0.02880057 0.10000000)
		(0.80446927 0.04236973 0.10000000)
		(0.82122905 0.05581148 0.10000000)
		(0.83798883 0.06908541 0.10000000)
		(0.85474860 0.08215161 0.10000000)
		(0.87150838 0.09497078 0.10000000)
		(0.88826816 0.10750438 0.10000000)
		(0.90502793 0.11971473 0.10000000)
		(0.92178771 0.13156510 0.10000000)
		(0.93854749 0.14301987 0.10000000)
		(0.95530726 0.15404459 0.10000000)
		(0.97206704 0.16460611 0.10000000)
		(0.98882682 0.17467267 0.10000000)
		(1.00558659 0.18421401 0.10000000)
		(1.02234637 0.19320143 0.10000000)
		(1.03910615 0.20160791 0.10000000)
		(1.05586592 0.20940817 0.10000000)
		(1.07262570 0.21657875 0.10000000)
		(1.08938547 0.22309810 0.10000000)
		(1.10614525 0.22894661 0.10000000)
		(1.12290503 0.23410670 0.10000000)
		(1.13966480 0.23856285 0.10000000)
		(1.15642458 0.24230166 0.10000000)
		(1.17318436 0.24531189 0.10000000)
		(1.18994413 0.24758448 0.10000000)
		(1.20670391 0.24911261 0.10000000)
		(1.22346369 0.24989168 0.10000000)
		(1.24022346 0.24991934 0.10000000)
		(1.25698324 0.24919551 0.10000000)
		(1.27374302 0.24772238 0.10000000)
		(1.29050279 0.24550436 0.10000000)
		(1.30726257 0.24254813 0.10000000)
		(1.32402235 0.23886258 0.10000000)
		(1.34078212 0.23445879 0.10000000)
		(1.35754190 0.22935000 0.10000000)
		(1.37430168 0.22355157 0.10000000)
		(1.39106145 0.21708094 0.10000000)
		(1.40782123 0.20995756 0.10000000)
		(1.42458101 0.20220286 0.10000000)
		(1.44134078 0.19384016 0.10000000)
		(1.45810056 0.18489459 0.10000000)
		(1.47486034 0.17539305 0.10000000)
		(1.49162011 0.16536413 0.10000000)
		(1.50837989 0.15483797 0.10000000)
		(1.52513966 0.14384622 0.10000000)
		(1.54189944 0.13242194 0.10000000)
		(1.55865922 0.12059947 0.10000000)
		(1.57541899 0.10841438 0.10000000)
		(1.59217877 0.09590329 0.10000000)
		(1.60893855 0.08310382 0.10000000)
		(1.62569832 0.07005447 0.10000000)
		(1.64245810 0.05679448 0.10000000)
		(1.65921788 0.04336370 0.10000000)
		(1.67597765 0.02980254 0.10000000)
		(1.69273743 0.01615176 0.10000000)
		(1.70949721 0.00245241 0.10000000)
		(1.72625698 -0.01125431 0.10000000)
		(1.74301676 -0.02492719 0.10000000)
		(1.75977654 -0.03852512 0.10000000)
		(1.77653631 -0.05200720 0.10000000)
		(1.79329609 -0.06533290 0.10000000)
		(1.81005587 -0.07846215 0.10000000)
		(1.82681564 -0.09135547 0.10000000)
		(1.84357542 -0.10397410 0.10000000)
		(1.86033520 -0.11628008 0.10000000)
		(1.87709497 -0.12823642 0.10000000)
		(1.89385475 -0.13980716 0.10000000)
		(1.91061453 -0.15095751 0.10000000)
		(1.92737430 -0.16165394 0.10000000)
		(1.94413408 -0.17186430 0.10000000)
		(1.96089385 -0.18155787 0.10000000)
		(1.97765363 -0.19070551 0.10000000)
		(1.99441341 -0.19927972 0.10000000)
		(2.01117318 -0.20725471 0.10000000)
		(2.02793296 -0.21460649 0.10000000)
		(2.04469274 -0.22131298 0.10000000)
		(2.06145251 -0.22735399 0.10000000)
		(2.07821229 -0.23271137 0.10000000)
		(2.09497207 -0.23736901 0.10000000)
		(2.11173184 -0.24131290 0.10000000)
		(2.12849162 -0.24453117 0.10000000)
		(2.14525140 -0.24701416 0.10000000)
		(2.16201117 -0.24875440 0.10000000)
		(2.17877095 -0.24974666 0.10000000)
		(2.19553073 -0.24998795 0.10000000)
		(2.21229050 -0.24947754 0.10000000)
		(2.22905028 -0.24821698 0.10000000)
		(2.24581006 -0.24621004 0.10000000)
		(2.26256983 -0.24346278 0.10000000)
		(2.27932961 -0.23998344 0.10000000)
		(2.29608939 -0.23578248 0.10000000)
		(2.31284916 -0.23087255 0.10000000)
		(2.32960894 -0.22526841 0.10000000)
		(2.34636872 -0.21898690 0.10000000)
		(2.36312849 -0.21204691 0.10000000)
		(2.37988827 -0.20446932 0.10000000)
		(2.39664804 -0.19627690 0.10000000)
		(2.41340782 -0.18749430 0.10000000)
		(2.43016760 -0.17814791 0.10000000)
		(2.44692737 -0.16826585 0.10000000)
		(2.46368715 -0.15787783 0.10000000)
		(2.48044693 -0.14701508 0.10000000)
		(2.49720670 -0.13571027 0.10000000)
		(2.51396648 -0.12399739 0.10000000)
		(2.53072626 -0.11191165 0.10000000)
		(2.54748603 -0.09948941 0.10000000)
		(2.56424581 -0.08676801 0.10000000)
		(2.58100559 -0.07378571 0.10000000)
		(2.59776536 -0.06058154 0.10000000)
		(2.61452514 -0.04719521 0.10000000)
		(2.63128492 -0.03366696 0.10000000)
		(2.64804469 -0.02003748 0.10000000)
		(2.66480447 -0.00634775 0.10000000)
		(2.68156425 0.00736107 0.10000000)
		(2.69832402 0.02104775 0.10000000)
		(2.71508380 0.03467115 0.10000000)
		(2.73184358 0.04819029 0.10000000)
		(2.74860335 0.06156453 0.10000000)
		(2.76536313 0.07475364 0.10000000)
		(2.78212291 0.08771798 0.10000000)
		(2.79888268 0.10041856 0.10000000)
		(2.81564246 0.11281719 0.10000000)
		(2.83240223 0.12487659 0.10000000)
		(2.84916201 0.13656049 0.10000000)
		(2.86592179 0.14783377 0.10000000)
		(2.88268156 0.15866252 0.10000000)
		(2.89944134 0.16901418 0.10000000)
		(2.91620112 0.17885764 0.10000000)
		(2.93296089 0.18816328 0.10000000)
		(2.95166480 0.19411234 0.10000000)
		(2.97036872 0.19943518 0.10000000)
		(2.98907263 0.20413180 0.10000000)
		(3.00777654 0.20820221 0.10000000)
		(3.02648045 0.21164640 0.10000000)
		(3.04518436 0.21446438 0.10000000)
		(3.06388827 0.21665614 0.10000000)
		(3.08259218 0.21822168 0.10000000)
		(3.10129609 0.21916100 0.10000000)
		(3.12000000 0.21947411 0.10000000)
		(3.14000000 0.21947411 0.10000000)
		(3.16000000 0.21947411 0.10000000)
		(3.18000000 0.21947411 0.10000000)
		(3.20000000 0.21947411 0.10000000)
		(3.22000000 0.21947411 0.10000000)
		(3.24000000 0.21947411 0.10000000)
		(3.26000000 0.21947411 0.10000000)
		(3.28000000 0.21947411 0.10000000)
		(3.30000000 0.21947411 0.10000000)
		(3.32000000 0.21947411 0.10000000)
		(3.34000000 0.21947411 0.10000000)
		(3.36000000 0.21947411 0.10000000)
		(3.38000000 0.21947411 0.10000000)
		(3.40000000 0.21947411 0.10000000)
		(3.42000000 0.21947411 0.10000000)
		(3.44000000 0.21947411 0.10000000)
		(3.46000000 0.21947411 0.10000000)
		(3.48000000 0.21947411 0.10000000)
		(3.50000000 0.21947411 0.10000000)
		(3.52000000 0.21947411 0.10000000)
		(3.54000000 0.21947411 0.10000000)
		(3.56000000 0.21947411 0.10000000)
		(3.58000000 0.21947411 0.10000000)
		(3.60000000 0.21947411 0.10000000)
		(3.62000000 0.21947411 0.10000000)
		(3.64000000 0.21947411 0.10000000)
		(3.66000000 0.21947411 0.10000000)
		(3.68000000 0.21947411 0.10000000)
		(3.70000000 0.21947411 0.10000000)
		(3.72000000 0.21947411 0.10000000)
		(3.74000000 0.21947411 0.10000000)
		(3.76000000 0.21947411 0.10000000)
		(3.78000000 0.21947411 0.10000000)
		(3.80000000 0.21947411 0.10000000)
		(3.82000000 0.21947411 0.10000000)
		(3.84000000 0.21947411 0.10000000)
		(3.86000000 0.21947411 0.10000000)
		(3.88000000 0.21947411 0.10000000)
		(3.90000000 0.21947411 0.10000000)
		(3.92000000 0.21947411 0.10000000)
		(3.94000000 0.21947411 0.10000000)
		(3.96000000 0.21947411 0.10000000)
		(3.98000000 0.21947411 0.10000000)
		(4.00000000 0.21947411 0.10000000)
	)
	polyLine 3 2
	(
		(-1.00000000 0.34290574 0.00000000)
		(-0.98000000 0.34288275 0.00000000)
		(-0.96000000 0.34285977 0.00000000)
		(-0.94000000 0.34283679 0.00000000)
		(-0.92000000 0.34281380 0.00000000)
		(-0.90000000 0.34279082 0.00000000)
		(-0.88000000 0.34276784 0.00000000)
		(-0.86000000 0.34274486 0.00000000)
		(-0.84000000 0.34272187 0.00000000)
		(-0.82000000 0.34269889 0.00000000)
		(-0.80000000 0.34267591 0.00000000)
		(-0.78000000 0.34265293 0.00000000)
		(-0.76000000 0.34262994 0.00000000)
		(-0.74000000 0.34260696 0.00000000)
		(-0.72000000 0.34258398 0.00000000)
		(-0.70000000 0.34256100 0.00000000)
		(-0.68000000 0.34253801 0.00000000)
		(-0.66000000 0.34251503 0.00000000)
		(-0.64000000 0.34249205 0.00000000)
		(-0.62000000 0.34246907 0.00000000)
		(-0.60000000 0.34244608 0.00000000)
		(-0.58000000 0.34242310 0.00000000)
		(-0.56000000 0.34240012 0.00000000)
		(-0.54000000 0.34237714 0.00000000)
		(-0.52000000 0.34235415 0.00000000)
		(-0.50000000 0.34233117 0.00000000)
		(-0.48000000 0.34230819 0.00000000)
		(-0.46000000 0.34228520 0.00000000)
		(-0.44000000 0.34226222 0.00000000)
		(-0.42000000 0.34223924 0.00000000)
		(-0.40000000 0.34221626 0.00000000)
		(-0.38000000 0.34219327 0.00000000)
		(-0.36000000 0.34217029 0.00000000)
		(-0.34000000 0.34214731 0.00000000)
		(-0.32000000 0.34212433 0.00000000)
		(-0.30000000 0.34210134 0.00000000)
		(-0.28000000 0.34207836 0.00000000)
		(-0.26000000 0.34205538 0.00000000)
		(-0.24000000 0.34203240 0.00000000)
		(-0.22000000 0.34200941 0.00000000)
		(-0.20000000 0.34198643 0.00000000)
		(-0.18000000 0.34196345 0.00000000)
		(-0.16000000 0.34194047 0.00000000)
		(-0.14000000 0.34191748 0.00000000)
		(-0.12000000 0.34189450 0.00000000)
		(-0.10000000 0.34187152 0.00000000)
		(-0.08162011 0.34217099 0.00000000)
		(-0.06324022 0.34135458 0.00000000)
		(-0.04486034 0.33942228 0.00000000)
		(-0.02648045 0.33637408 0.00000000)
		(-0.00810056 0.33221000 0.00000000)
		(0.01027933 0.32693004 0.00000000)
		(0.02865922 0.32053418 0.00000000)
		(0.04703911 0.31302243 0.00000000)
		(0.06541899 0.30439480 0.00000000)
		(0.08379888 0.29465128 0.00000000)
		(0.10055866 0.28697299 0.00000000)
		(0.11731844 0.27993526 0.00000000)
		(0.13407821 0.27355925 0.00000000)
		(0.15083799 0.26786412 0.00000000)
		(0.16759777 0.26286701 0.00000000)
		(0.18435754 0.25858294 0.00000000)
		(0.20111732 0.25502479 0.00000000)
		(0.21787709 0.25220326 0.00000000)
		(0.23463687 0.25012683 0.00000000)
		(0.25139665 0.24880176 0.00000000)
		(0.26815642 0.24823201 0.00000000)
		(0.28491620 0.24841932 0.00000000)
		(0.30167598 0.24936310 0.00000000)
		(0.31843575 0.25106053 0.00000000)
		(0.33519553 0.25350651 0.00000000)
		(0.35195531 0.25669366 0.00000000)
		(0.36871508 0.26061242 0.00000000)
		(0.38547486 0.26525100 0.00000000)
		(0.40223464 0.27059545 0.00000000)
		(0.41899441 0.27662971 0.00000000)
		(0.43575419 0.28333562 0.00000000)
		(0.45251397 0.29069302 0.00000000)
		(0.46927374 0.29867979 0.00000000)
		(0.48603352 0.30727191 0.00000000)
		(0.50279330 0.31644355 0.00000000)
		(0.51955307 0.32616713 0.00000000)
		(0.53631285 0.33641342 0.00000000)
		(0.55307263 0.34715159 0.00000000)
		(0.56983240 0.35834937 0.00000000)
		(0.58659218 0.36997308 0.00000000)
		(0.60335196 0.38198777 0.00000000)
		(0.62011173 0.39435731 0.00000000)
		(0.63687151 0.40704451 0.00000000)
		(0.65363128 0.42001122 0.00000000)
		(0.67039106 0.43321845 0.00000000)
		(0.68715084 0.44662649 0.00000000)
		(0.70391061 0.46019502 0.00000000)
		(0.72067039 0.47388324 0.00000000)
		(0.73743017 0.48764999 0.00000000)
		(0.75418994 0.50145387 0.00000000)
		(0.77094972 0.51525339 0.00000000)
		(0.78770950 0.52900703 0.00000000)
		(0.80446927 0.54267346 0.00000000)
		(0.82122905 0.55621157 0.00000000)
		(0.83798883 0.56958066 0.00000000)
		(0.85474860 0.58274052 0.00000000)
		(0.87150838 0.59565159 0.00000000)
		(0.88826816 0.60827504 0.00000000)
		(0.90502793 0.62057292 0.00000000)
		(0.92178771 0.63250824 0.00000000)
		(0.93854749 0.64404513 0.00000000)
		(0.95530726 0.65514888 0.00000000)
		(0.97206704 0.66578611 0.00000000)
		(0.98882682 0.67592483 0.00000000)
		(1.00558659 0.68553457 0.00000000)
		(1.02234637 0.69458641 0.00000000)
		(1.03910615 0.70305315 0.00000000)
		(1.05586592 0.71090933 0.00000000)
		(1.07262570 0.71813132 0.00000000)
		(1.08938547 0.72469740 0.00000000)
		(1.10614525 0.73058784 0.00000000)
		(1.12290503 0.73578492 0.00000000)
		(1.13966480 0.74027301 0.00000000)
		(1.15642458 0.74403863 0.00000000)
		(1.17318436 0.74707043 0.00000000)
		(1.18994413 0.74935932 0.00000000)
		(1.20670391 0.75089840 0.00000000)
		(1.22346369 0.75168305 0.00000000)
		(1.24022346 0.75171091 0.00000000)
		(1.25698324 0.75098190 0.00000000)
		(1.27374302 0.74949820 0.00000000)
		(1.29050279 0.74726428 0.00000000)
		(1.30726257 0.74428686 0.00000000)
		(1.32402235 0.74057489 0.00000000)
		(1.34078212 0.73613953 0.00000000)
		(1.35754190 0.73099412 0.00000000)
		(1.37430168 0.72515412 0.00000000)
		(1.39106145 0.71863711 0.00000000)
		(1.40782123 0.71146267 0.00000000)
		(1.42458101 0.70365238 0.00000000)
		(1.44134078 0.69522972 0.00000000)
		(1.45810056 0.68622002 0.00000000)
		(1.47486034 0.67665038 0.00000000)
		(1.49162011 0.66654956 0.00000000)
		(1.50837989 0.65594794 0.00000000)
		(1.52513966 0.64487740 0.00000000)
		(1.54189944 0.63337122 0.00000000)
		(1.55865922 0.62146400 0.00000000)
		(1.57541899 0.60919156 0.00000000)
		(1.59217877 0.59659078 0.00000000)
		(1.60893855 0.58369956 0.00000000)
		(1.62569832 0.57055667 0.00000000)
		(1.64245810 0.55720161 0.00000000)
		(1.65921788 0.54367456 0.00000000)
		(1.67597765 0.53001618 0.00000000)
		(1.69273743 0.51626754 0.00000000)
		(1.70949721 0.50246999 0.00000000)
		(1.72625698 0.48866501 0.00000000)
		(1.74301676 0.47489412 0.00000000)
		(1.75977654 0.46119871 0.00000000)
		(1.77653631 0.44761998 0.00000000)
		(1.79329609 0.43419875 0.00000000)
		(1.81005587 0.42097538 0.00000000)
		(1.82681564 0.40798963 0.00000000)
		(1.84357542 0.39528055 0.00000000)
		(1.86033520 0.38288635 0.00000000)
		(1.87709497 0.37084431 0.00000000)
		(1.89385475 0.35919062 0.00000000)
		(1.91061453 0.34796034 0.00000000)
		(1.92737430 0.33718722 0.00000000)
		(1.94413408 0.32690367 0.00000000)
		(1.96089385 0.31714061 0.00000000)
		(1.97765363 0.30792739 0.00000000)
		(1.99441341 0.29929172 0.00000000)
		(2.01117318 0.29125957 0.00000000)
		(2.02793296 0.28385507 0.00000000)
		(2.04469274 0.27710051 0.00000000)
		(2.06145251 0.27101619 0.00000000)
		(2.07821229 0.26562041 0.00000000)
		(2.09497207 0.26092938 0.00000000)
		(2.11173184 0.25695723 0.00000000)
		(2.12849162 0.25371588 0.00000000)
		(2.14525140 0.25121509 0.00000000)
		(2.16201117 0.24946237 0.00000000)
		(2.17877095 0.24846300 0.00000000)
		(2.19553073 0.24821999 0.00000000)
		(2.21229050 0.24873405 0.00000000)
		(2.22905028 0.25000365 0.00000000)
		(2.24581006 0.25202497 0.00000000)
		(2.26256983 0.25479193 0.00000000)
		(2.27932961 0.25829622 0.00000000)
		(2.29608939 0.26252728 0.00000000)
		(2.31284916 0.26747241 0.00000000)
		(2.32960894 0.27311673 0.00000000)
		(2.34636872 0.27944327 0.00000000)
		(2.36312849 0.28643300 0.00000000)
		(2.37988827 0.29406492 0.00000000)
		(2.39664804 0.30231606 0.00000000)
		(2.41340782 0.31116163 0.00000000)
		(2.43016760 0.32057501 0.00000000)
		(2.44692737 0.33052792 0.00000000)
		(2.46368715 0.34099041 0.00000000)
		(2.48044693 0.35193103 0.00000000)
		(2.49720670 0.36331688 0.00000000)