/*--------------------------------*- C++ -*----------------------------------*\\
/*--------------------------------*- C++ -*----------------------------------*\\
| =========                 |                                                 |
| \\\\      /  F ield         | OpenFOAM: The Open Source CFD Toolbox           |
|  \\\\    /   O peration     | Version:  v2012                                 |
|   \\\\  /    A nd           | Website:  www.openfoam.com                      |
|    \\\\/     M anipulation  |                                                 |
\\*---------------------------------------------------------------------------*/
FoamFile
{
    version     2.0;
    format      ascii;
    class       dictionary;
    object      blockMeshDict;
}
// * * * * * * * * * * * * * * * * * * * * * * * * * * * * * * * * * * * * * //

scale   0.01;

xmin -1;
xmax 5;
ymin 0;
ymax 0.5;
zmin 0;
zmax 0.1;

vertices
(
    (-1.00000000 -0.02449378 0.00000000)
    (4.00000000 0.10942791 0.00000000)
    (4.00000000 0.60942791 0.00000000)
    (-1.00000000 0.47550622 0.00000000)
    (-1.00000000 -0.02449378 0.10000000)
    (4.00000000 0.10942791 0.10000000)
    (4.00000000 0.60942791 0.10000000)
    (-1.00000000 0.47550622 0.10000000)
);

blocks
(
    hex (0 1 2 3 4 5 6 7) (200 20 1) simpleGrading (1 1 1)
);

edges
(
	polyLine 0 1
	(
		(-1.00000000 -0.02449378 0.00000000)
		(-0.98000000 -0.02449378 0.00000000)
		(-0.96000000 -0.02449378 0.00000000)
		(-0.94000000 -0.02449378 0.00000000)
		(-0.92000000 -0.02449378 0.00000000)
		(-0.90000000 -0.02449378 0.00000000)
		(-0.88000000 -0.02449378 0.00000000)
		(-0.86000000 -0.02449378 0.00000000)
		(-0.84000000 -0.02449378 0.00000000)
		(-0.82000000 -0.02449378 0.00000000)
		(-0.80000000 -0.02449378 0.00000000)
		(-0.78000000 -0.02449378 0.00000000)
		(-0.76000000 -0.02449378 0.00000000)
		(-0.74000000 -0.02449378 0.00000000)
		(-0.72000000 -0.02449378 0.00000000)
		(-0.70000000 -0.02449378 0.00000000)
		(-0.68000000 -0.02449378 0.00000000)
		(-0.66000000 -0.02449378 0.00000000)
		(-0.64000000 -0.02449378 0.00000000)
		(-0.62000000 -0.02449378 0.00000000)
		(-0.60000000 -0.02449378 0.00000000)
		(-0.58000000 -0.02449378 0.00000000)
		(-0.56000000 -0.02449378 0.00000000)
		(-0.54000000 -0.02449378 0.00000000)
		(-0.52000000 -0.02449378 0.00000000)
		(-0.50000000 -0.02449378 0.00000000)
		(-0.48000000 -0.02449378 0.00000000)
		(-0.46000000 -0.02449378 0.00000000)
		(-0.44000000 -0.02449378 0.00000000)
		(-0.42000000 -0.02449378 0.00000000)
		(-0.40000000 -0.02449378 0.00000000)
		(-0.38000000 -0.02449378 0.00000000)
		(-0.36000000 -0.02449378 0.00000000)
		(-0.34000000 -0.02449378 0.00000000)
		(-0.32000000 -0.02449378 0.00000000)
		(-0.30000000 -0.02449378 0.00000000)
		(-0.28000000 -0.02449378 0.00000000)
		(-0.26000000 -0.02449378 0.00000000)
		(-0.24000000 -0.02449378 0.00000000)
		(-0.22000000 -0.02449378 0.00000000)
		(-0.20000000 -0.02449378 0.00000000)
		(-0.18000000 -0.02449378 0.00000000)
		(-0.16000000 -0.02449378 0.00000000)
		(-0.14000000 -0.02449378 0.00000000)
		(-0.12000000 -0.02449378 0.00000000)
		(-0.10000000 -0.02449378 0.00000000)
		(-0.08162011 -0.02358616 0.00000000)
		(-0.06324022 -0.02086330 0.00000000)
		(-0.04486034 -0.01632520 0.00000000)
		(-0.02648045 -0.00997185 0.00000000)
		(-0.00810056 -0.00180327 0.00000000)
		(0.01027933 0.00818055 0.00000000)
		(0.02865922 0.01997961 0.00000000)
		(0.04703911 0.03359392 0.00000000)
		(0.06541899 0.04902346 0.00000000)
		(0.08379888 0.06626825 0.00000000)
		(0.10055866 0.08373983 0.00000000)
		(0.11731844 0.10076190 0.00000000)
		(0.13407821 0.11724309 0.00000000)
		(0.15083799 0.13309493 0.00000000)
		(0.16759777 0.14823233 0.00000000)
		(0.18435754 0.16257404 0.00000000)
		(0.20111732 0.17604305 0.00000000)
		(0.21787709 0.18856709 0.00000000)
		(0.23463687 0.20007891 0.00000000)
		(0.25139665 0.21051673 0.00000000)
		(0.26815642 0.21982451 0.00000000)
		(0.28491620 0.22795230 0.00000000)
		(0.30167598 0.23485645 0.00000000)
		(0.31843575 0.24049992 0.00000000)
		(0.33519553 0.24485241 0.00000000)
		(0.35195531 0.24789054 0.00000000)
		(0.36871508 0.24959803 0.00000000)
		(0.38547486 0.24996569 0.00000000)
		(0.40223464 0.24899156 0.00000000)
		(0.41899441 0.24668087 0.00000000)
		(0.43575419 0.24304601 0.00000000)
		(0.45251397 0.23810651 0.00000000)
		(0.46927374 0.23188887 0.00000000)
		(0.48603352 0.22442647 0.00000000)
		(0.50279330 0.21575937 0.00000000)
		(0.51955307 0.20593409 0.00000000)
		(0.53631285 0.19500338 0.00000000)
		(0.55307263 0.18302590 0.00000000)
		(0.56983240 0.17006596 0.00000000)
		(0.58659218 0.15619312 0.00000000)
		(0.60335196 0.14148185 0.00000000)
		(0.62011173 0.12601112 0.00000000)
		(0.63687151 0.10986397 0.00000000)
		(0.65363128 0.09312708 0.00000000)
		(0.67039106 0.07589029 0.00000000)
		(0.68715084 0.05824613 0.00000000)
		(0.70391061 0.04028931 0.00000000)
		(0.72067039 0.02211622 0.00000000)
		(0.73743017 0.00382441 0.00000000)
		(0.75418994 -0.01448793 0.00000000)
		(0.77094972 -0.03272249 0.00000000)
		(0.78770950 -0.05078141 0.00000000)
		(0.80446927 -0.06856773 0.00000000)
		(0.82122905 -0.08598599 0.00000000)
		(0.83798883 -0.10294269 0.00000000)
		(0.85474860 -0.11934680 0.00000000)
		(0.87150838 -0.13511026 0.00000000)
		(0.88826816 -0.15014847 0.00000000)
		(0.90502793 -0.16438069 0.00000000)
		(0.92178771 -0.17773053 0.00000000)
		(0.93854749 -0.19012632 0.00000000)
		(0.95530726 -0.20150154 0.00000000)
		(0.97206704 -0.21179511 0.00000000)
		(0.98882682 -0.22095179 0.00000000)
		(1.00558659 -0.22892242 0.00000000)
		(1.02234637 -0.23566421 0.00000000)
		(1.03910615 -0.24114098 0.00000000)
		(1.05586592 -0.24532332 0.00000000)
		(1.07262570 -0.24818879 0.00000000)
		(1.08938547 -0.24972200 0.00000000)
		(1.10614525 -0.24991473 0.00000000)
		(1.12290503 -0.24876594 0.00000000)
		(1.13966480 -0.24628179 0.00000000)
		(1.15642458 -0.24247563 0.00000000)
		(1.17318436 -0.23736788 0.00000000)
		(1.18994413 -0.23098595 0.00000000)
		(1.20670391 -0.22336412 0.00000000)
		(1.22346369 -0.21454329 0.00000000)
		(1.24022346 -0.20457080 0.00000000)
		(1.25698324 -0.19350020 0.00000000)
		(1.27374302 -0.18139091 0.00000000)
		(1.29050279 -0.16830793 0.00000000)
		(1.30726257 -0.15432148 0.00000000)
		(1.32402235 -0.13950665 0.00000000)
		(1.34078212 -0.12394296 0.00000000)
		(1.35754190 -0.10771396 0.00000000)
		(1.37430168 -0.09090676 0.00000000)
		(1.39106145 -0.07361158 0.00000000)
		(1.40782123 -0.05592125 0.00000000)
		(1.42458101 -0.03793075 0.00000000)
		(1.44134078 -0.01973664 0.00000000)
		(1.45810056 -0.00143658 0.00000000)
		(1.47486034 0.01687118 0.00000000)
		(1.49162011 0.03508839 0.00000000)
		(1.50837989 0.05311724 0.00000000)
		(1.52513966 0.07086097 0.00000000)
		(1.54189944 0.08822432 0.00000000)
		(1.55865922 0.10511409 0.00000000)
		(1.57541899 0.12143961 0.00000000)
		(1.59217877 0.13711326 0.00000000)
		(1.60893855 0.15205090 0.00000000)
		(1.62569832 0.16617234 0.00000000)
		(1.64245810 0.17940178 0.00000000)
		(1.65921788 0.19166821 0.00000000)
		(1.67597765 0.20290578 0.00000000)
		(1.69273743 0.21305417 0.00000000)
		(1.70949721 0.22205891 0.00000000)
		(1.72625698 0.22987165 0.00000000)
		(1.74301676 0.23645046 0.00000000)
		(1.75977654 0.24176003 0.00000000)
		(1.77653631 0.24577185 0.00000000)
		(1.79329609 0.24846439 0.00000000)
		(1.81005587 0.24982319 0.00000000)
		(1.82681564 0.24984097 0.00000000)
		(1.84357542 0.24851762 0.00000000)
		(1.86033520 0.24586025 0.00000000)
		(1.87709497 0.24188312 0.00000000)
		(1.89385475 0.23660759 0.00000000)
		(1.91061453 0.23006197 0.00000000)
		(1.92737430 0.22228139 0.00000000)
		(1.94413408 0.21330763 0.00000000)
		(1.96089385 0.20318885 0.00000000)
		(1.97765363 0.19197937 0.00000000)
		(1.99441341 0.17973937 0.00000000)
		(2.01117318 0.16653454 0.00000000)
		(2.02793296 0.15243576 0.00000000)
		(2.04469274 0.13751873 0.00000000)
		(2.06145251 0.12186350 0.00000000)
		(2.07821229 0.10555413 0.00000000)
		(2.09497207 0.08867815 0.00000000)
		(2.11173184 0.07132615 0.00000000)
		(2.12849162 0.05359128 0.00000000)
		(2.14525140 0.03556873 0.00000000)
		(2.16201117 0.01735526 0.00000000)
		(2.17877095 -0.00095137 0.00000000)
		(2.19553073 -0.01925290 0.00000000)
		(2.21229050 -0.03745108 0.00000000)
		(2.22905028 -0.05544823 0.00000000)
		(2.24581006 -0.07314773 0.00000000)
		(2.26256983 -0.09045459 0.00000000)
		(2.27932961 -0.10727589 0.00000000)
		(2.29608939 -0.12352135 0.00000000)
		(2.31284916 -0.13910375 0.00000000)
		(2.32960894 -0.15393946 0.00000000)
		(2.34636872 -0.16794883 0.00000000)
		(2.36312849 -0.18105667 0.00000000)
		(2.37988827 -0.19319261 0.00000000)
		(2.39664804 -0.20429151 0.00000000)
		(2.41340782 -0.21429379 0.00000000)
		(2.43016760 -0.22314577 0.00000000)
		(2.44692737 -0.23079991 0.00000000)
		(2.46368715 -0.23721514 0.00000000)
		(2.48044693 -0.24235702 0.00000000)
		(2.49720670 -0.24619796 0.00000000)
		(2.51396648 -0.24871732 0.00000000)
		(2.53072626 -0.24990159 0.00000000)
		(2.54748603 -0.24974441 0.00000000)
		(2.56424581 -0.24824662 0.00000000)
		(2.58100559 -0.24541627 0.00000000)
		(2.59776536 -0.24126854 0.00000000)
		(2.61452514 -0.23582571 0.00000000)
		(2.63128492 -0.22911699 0.00000000)
		(2.64804469 -0.22117838 0.00000000)
		(2.66480447 -0.21205251 0.00000000)
		(2.68156425 -0.20178836 0.00000000)
		(2.69832402 -0.19044103 0.00000000)
		(2.71508380 -0.17807143 0.00000000)
		(2.73184358 -0.16474595 0.00000000)
		(2.74860335 -0.15053614 0.00000000)
		(2.76536313 -0.13551826 0.00000000)
		(2.78212291 -0.11977293 0.00000000)
		(2.79888268 -0.10338466 0.00000000)
		(2.81564246 -0.08644144 0.00000000)
		(2.83240223 -0.06903421 0.00000000)
		(2.84916201 -0.05125641 0.00000000)
		(2.86592179 -0.03320347 0.00000000)
		(2.88268156 -0.01497230 0.00000000)
		(2.89944134 0.00333925 0.00000000)
		(2.91620112 0.02163286 0.00000000)
		(2.93296089 0.03981036 0.00000000)
		(2.95166480 0.05303769 0.00000000)
		(2.97036872 0.06487268 0.00000000)
		(2.98907263 0.07531531 0.00000000)
		(3.00777654 0.08436559 0.00000000)
		(3.02648045 0.09202352 0.00000000)
		(3.04518436 0.09828910 0.00000000)
		(3.06388827 0.10316233 0.00000000)
		(3.08259218 0.10664321 0.00000000)
		(3.10129609 0.10873173 0.00000000)
		(3.12000000 0.10942791 0.00000000)
		(3.14000000 0.10942791 0.00000000)
		(3.16000000 0.10942791 0.00000000)
		(3.18000000 0.10942791 0.00000000)
		(3.20000000 0.10942791 0.00000000)
		(3.22000000 0.10942791 0.00000000)
		(3.24000000 0.10942791 0.00000000)
		(3.26000000 0.10942791 0.00000000)
		(3.28000000 0.10942791 0.00000000)
		(3.30000000 0.10942791 0.00000000)
		(3.32000000 0.10942791 0.00000000)
		(3.34000000 0.10942791 0.00000000)
		(3.36000000 0.10942791 0.00000000)
		(3.38000000 0.10942791 0.00000000)
		(3.40000000 0.10942791 0.00000000)
		(3.42000000 0.10942791 0.00000000)
		(3.44000000 0.10942791 0.00000000)
		(3.46000000 0.10942791 0.00000000)
		(3.48000000 0.10942791 0.00000000)
		(3.50000000 0.10942791 0.00000000)
		(3.52000000 0.10942791 0.00000000)
		(3.54000000 0.10942791 0.00000000)
		(3.56000000 0.10942791 0.00000000)
		(3.58000000 0.10942791 0.00000000)
		(3.60000000 0.10942791 0.00000000)
		(3.62000000 0.10942791 0.00000000)
		(3.64000000 0.10942791 0.00000000)
		(3.66000000 0.10942791 0.00000000)
		(3.68000000 0.10942791 0.00000000)
		(3.70000000 0.10942791 0.00000000)
		(3.72000000 0.10942791 0.00000000)
		(3.74000000 0.10942791 0.00000000)
		(3.76000000 0.10942791 0.00000000)
		(3.78000000 0.10942791 0.00000000)
		(3.80000000 0.10942791 0.00000000)
		(3.82000000 0.10942791 0.00000000)
		(3.84000000 0.10942791 0.00000000)
		(3.86000000 0.10942791 0.00000000)
		(3.88000000 0.10942791 0.00000000)
		(3.90000000 0.10942791 0.00000000)
		(3.92000000 0.10942791 0.00000000)
		(3.94000000 0.10942791 0.00000000)
		(3.96000000 0.10942791 0.00000000)
		(3.98000000 0.10942791 0.00000000)
		(4.00000000 0.10942791 0.00000000)
	)
	polyLine 4 5
	(
		(-1.00000000 -0.02449378 0.10000000)
		(-0.98000000 -0.02449378 0.10000000)
		(-0.96000000 -0.02449378 0.10000000)
		(-0.94000000 -0.02449378 0.10000000)
		(-0.92000000 -0.02449378 0.10000000)
		(-0.90000000 -0.02449378 0.10000000)
		(-0.88000000 -0.02449378 0.10000000)
		(-0.86000000 -0.02449378 0.10000000)
		(-0.84000000 -0.02449378 0.10000000)
		(-0.82000000 -0.02449378 0.10000000)
		(-0.80000000 -0.02449378 0.10000000)
		(-0.78000000 -0.02449378 0.10000000)
		(-0.76000000 -0.02449378 0.10000000)
		(-0.74000000 -0.02449378 0.10000000)
		(-0.72000000 -0.02449378 0.10000000)
		(-0.70000000 -0.02449378 0.10000000)
		(-0.68000000 -0.02449378 0.10000000)
		(-0.66000000 -0.02449378 0.10000000)
		(-0.64000000 -0.02449378 0.10000000)
		(-0.62000000 -0.02449378 0.10000000)
		(-0.60000000 -0.02449378 0.10000000)
		(-0.58000000 -0.02449378 0.10000000)
		(-0.56000000 -0.02449378 0.10000000)
		(-0.54000000 -0.02449378 0.10000000)
		(-0.52000000 -0.02449378 0.10000000)
		(-0.50000000 -0.02449378 0.10000000)
		(-0.48000000 -0.02449378 0.10000000)
		(-0.46000000 -0.02449378 0.10000000)
		(-0.44000000 -0.02449378 0.10000000)
		(-0.42000000 -0.02449378 0.10000000)
		(-0.40000000 -0.02449378 0.10000000)
		(-0.38000000 -0.02449378 0.10000000)
		(-0.36000000 -0.02449378 0.10000000)
		(-0.34000000 -0.02449378 0.10000000)
		(-0.32000000 -0.02449378 0.10000000)
		(-0.30000000 -0.02449378 0.10000000)
		(-0.28000000 -0.02449378 0.10000000)
		(-0.26000000 -0.02449378 0.10000000)
		(-0.24000000 -0.02449378 0.10000000)
		(-0.22000000 -0.02449378 0.10000000)
		(-0.20000000 -0.02449378 0.10000000)
		(-0.18000000 -0.02449378 0.10000000)
		(-0.16000000 -0.02449378 0.10000000)
		(-0.14000000 -0.02449378 0.10000000)
		(-0.12000000 -0.02449378 0.10000000)
		(-0.10000000 -0.02449378 0.10000000)
		(-0.08162011 -0.02358616 0.10000000)
		(-0.06324022 -0.02086330 0.10000000)
		(-0.04486034 -0.01632520 0.10000000)
		(-0.02648045 -0.00997185 0.10000000)
		(-0.00810056 -0.00180327 0.10000000)
		(0.01027933 0.00818055 0.10000000)
		(0.02865922 0.01997961 0.10000000)
		(0.04703911 0.03359392 0.10000000)
		(0.06541899 0.04902346 0.10000000)
		(0.08379888 0.06626825 0.10000000)
		(0.10055866 0.08373983 0.10000000)
		(0.11731844 0.10076190 0.10000000)
		(0.13407821 0.11724309 0.10000000)
		(0.15083799 0.13309493 0.10000000)
		(0.16759777 0.14823233 0.10000000)
		(0.18435754 0.16257404 0.10000000)
		(0.20111732 0.17604305 0.10000000)
		(0.21787709 0.18856709 0.10000000)
		(0.23463687 0.20007891 0.10000000)
		(0.25139665 0.21051673 0.10000000)
		(0.26815642 0.21982451 0.10000000)
		(0.28491620 0.22795230 0.10000000)
		(0.30167598 0.23485645 0.10000000)
		(0.31843575 0.24049992 0.10000000)
		(0.33519553 0.24485241 0.10000000)
		(0.35195531 0.24789054 0.10000000)
		(0.36871508 0.24959803 0.10000000)
		(0.38547486 0.24996569 0.10000000)
		(0.40223464 0.24899156 0.10000000)
		(0.41899441 0.24668087 0.10000000)
		(0.43575419 0.24304601 0.10000000)
		(0.45251397 0.23810651 0.10000000)
		(0.46927374 0.23188887 0.10000000)
		(0.48603352 0.22442647 0.10000000)
		(0.50279330 0.21575937 0.10000000)
		(0.51955307 0.20593409 0.10000000)
		(0.53631285 0.19500338 0.10000000)
		(0.55307263 0.18302590 0.10000000)
		(0.56983240 0.17006596 0.10000000)
		(0.58659218 0.15619312 0.10000000)
		(0.60335196 0.14148185 0.10000000)
		(0.62011173 0.12601112 0.10000000)
		(0.63687151 0.10986397 0.10000000)
		(0.65363128 0.09312708 0.10000000)
		(0.67039106 0.07589029 0.10000000)
		(0.68715084 0.05824613 0.10000000)
		(0.70391061 0.04028931 0.10000000)
		(0.72067039 0.02211622 0.10000000)
		(0.73743017 0.00382441 0.10000000)
		(0.75418994 -0.01448793 0.10000000)
		(0.77094972 -0.03272249 0.10000000)
		(0.78770950 -0.05078141 0.10000000)
		(0.80446927 -0.06856773 0.10000000)
		(0.82122905 -0.08598599 0.10000000)
		(0.83798883 -0.10294269 0.10000000)
		(0.85474860 -0.11934680 0.10000000)
		(0.87150838 -0.13511026 0.10000000)
		(0.88826816 -0.15014847 0.10000000)
		(0.90502793 -0.16438069 0.10000000)
		(0.92178771 -0.17773053 0.10000000)
		(0.93854749 -0.19012632 0.10000000)
		(0.95530726 -0.20150154 0.10000000)
		(0.97206704 -0.21179511 0.10000000)
		(0.98882682 -0.22095179 0.10000000)
		(1.00558659 -0.22892242 0.10000000)
		(1.02234637 -0.23566421 0.10000000)
		(1.03910615 -0.24114098 0.10000000)
		(1.05586592 -0.24532332 0.10000000)
		(1.07262570 -0.24818879 0.10000000)
		(1.08938547 -0.24972200 0.10000000)
		(1.10614525 -0.24991473 0.10000000)
		(1.12290503 -0.24876594 0.10000000)
		(1.13966480 -0.24628179 0.10000000)
		(1.15642458 -0.24247563 0.10000000)
		(1.17318436 -0.23736788 0.10000000)
		(1.18994413 -0.23098595 0.10000000)
		(1.20670391 -0.22336412 0.10000000)
		(1.22346369 -0.21454329 0.10000000)
		(1.24022346 -0.20457080 0.10000000)
		(1.25698324 -0.19350020 0.10000000)
		(1.27374302 -0.18139091 0.10000000)
		(1.29050279 -0.16830793 0.10000000)
		(1.30726257 -0.15432148 0.10000000)
		(1.32402235 -0.13950665 0.10000000)
		(1.34078212 -0.12394296 0.10000000)
		(1.35754190 -0.10771396 0.10000000)
		(1.37430168 -0.09090676 0.10000000)
		(1.39106145 -0.07361158 0.10000000)
		(1.40782123 -0.05592125 0.10000000)
		(1.42458101 -0.03793075 0.10000000)
		(1.44134078 -0.01973664 0.10000000)
		(1.45810056 -0.00143658 0.10000000)
		(1.47486034 0.01687118 0.10000000)
		(1.49162011 0.03508839 0.10000000)
		(1.50837989 0.05311724 0.10000000)
		(1.52513966 0.07086097 0.10000000)
		(1.54189944 0.08822432 0.10000000)
		(1.55865922 0.10511409 0.10000000)
		(1.57541899 0.12143961 0.10000000)
		(1.59217877 0.13711326 0.10000000)
		(1.60893855 0.15205090 0.10000000)
		(1.62569832 0.16617234 0.10000000)
		(1.64245810 0.17940178 0.10000000)
		(1.65921788 0.19166821 0.10000000)
		(1.67597765 0.20290578 0.10000000)
		(1.69273743 0.21305417 0.10000000)
		(1.70949721 0.22205891 0.10000000)
		(1.72625698 0.22987165 0.10000000)
		(1.74301676 0.23645046 0.10000000)
		(1.75977654 0.24176003 0.10000000)
		(1.77653631 0.24577185 0.10000000)
		(1.79329609 0.24846439 0.10000000)
		(1.81005587 0.24982319 0.10000000)
		(1.82681564 0.24984097 0.10000000)
		(1.84357542 0.24851762 0.10000000)
		(1.86033520 0.24586025 0.10000000)
		(1.87709497 0.24188312 0.10000000)
		(1.89385475 0.23660759 0.10000000)
		(1.91061453 0.23006197 0.10000000)
		(1.92737430 0.22228139 0.10000000)
		(1.94413408 0.21330763 0.10000000)
		(1.96089385 0.20318885 0.10000000)
		(1.97765363 0.19197937 0.10000000)
		(1.99441341 0.17973937 0.10000000)
		(2.01117318 0.16653454 0.10000000)
		(2.02793296 0.15243576 0.10000000)
		(2.04469274 0.13751873 0.10000000)
		(2.06145251 0.12186350 0.10000000)
		(2.07821229 0.10555413 0.10000000)
		(2.09497207 0.08867815 0.10000000)
		(2.11173184 0.07132615 0.10000000)
		(2.12849162 0.05359128 0.10000000)
		(2.14525140 0.03556873 0.10000000)
		(2.16201117 0.01735526 0.10000000)
		(2.17877095 -0.00095137 0.10000000)
		(2.19553073 -0.01925290 0.10000000)
		(2.21229050 -0.03745108 0.10000000)
		(2.22905028 -0.05544823 0.10000000)
		(2.24581006 -0.07314773 0.10000000)
		(2.26256983 -0.09045459 0.10000000)
		(2.27932961 -0.10727589 0.10000000)
		(2.29608939 -0.12352135 0.10000000)
		(2.31284916 -0.13910375 0.10000000)
		(2.32960894 -0.15393946 0.10000000)
		(2.34636872 -0.16794883 0.10000000)
		(2.36312849 -0.18105667 0.10000000)
		(2.37988827 -0.19319261 0.10000000)
		(2.39664804 -0.20429151 0.10000000)
		(2.41340782 -0.21429379 0.10000000)
		(2.43016760 -0.22314577 0.10000000)
		(2.44692737 -0.23079991 0.10000000)
		(2.46368715 -0.23721514 0.10000000)
		(2.48044693 -0.24235702 0.10000000)
		(2.49720670 -0.24619796 0.10000000)
		(2.51396648 -0.24871732 0.10000000)
		(2.53072626 -0.24990159 0.10000000)
		(2.54748603 -0.24974441 0.10000000)
		(2.56424581 -0.24824662 0.10000000)
		(2.58100559 -0.24541627 0.10000000)
		(2.59776536 -0.24126854 0.10000000)
		(2.61452514 -0.23582571 0.10000000)
		(2.63128492 -0.22911699 0.10000000)
		(2.64804469 -0.22117838 0.10000000)
		(2.66480447 -0.21205251 0.10000000)
		(2.68156425 -0.20178836 0.10000000)
		(2.69832402 -0.19044103 0.10000000)
		(2.71508380 -0.17807143 0.10000000)
		(2.73184358 -0.16474595 0.10000000)
		(2.74860335 -0.15053614 0.10000000)
		(2.76536313 -0.13551826 0.10000000)
		(2.78212291 -0.11977293 0.10000000)
		(2.79888268 -0.10338466 0.10000000)
		(2.81564246 -0.08644144 0.10000000)
		(2.83240223 -0.06903421 0.10000000)
		(2.84916201 -0.05125641 0.10000000)
		(2.86592179 -0.03320347 0.10000000)
		(2.88268156 -0.01497230 0.10000000)
		(2.89944134 0.00333925 0.10000000)
		(2.91620112 0.02163286 0.10000000)
		(2.93296089 0.03981036 0.10000000)
		(2.95166480 0.05303769 0.10000000)
		(2.97036872 0.06487268 0.10000000)
		(2.98907263 0.07531531 0.10000000)
		(3.00777654 0.08436559 0.10000000)
		(3.02648045 0.09202352 0.10000000)
		(3.04518436 0.09828910 0.10000000)
		(3.06388827 0.10316233 0.10000000)
		(3.08259218 0.10664321 0.10000000)
		(3.10129609 0.10873173 0.10000000)
		(3.12000000 0.10942791 0.10000000)
		(3.14000000 0.10942791 0.10000000)
		(3.16000000 0.10942791 0.10000000)
		(3.18000000 0.10942791 0.10000000)
		(3.20000000 0.10942791 0.10000000)
		(3.22000000 0.10942791 0.10000000)
		(3.24000000 0.10942791 0.10000000)
		(3.26000000 0.10942791 0.10000000)
		(3.28000000 0.10942791 0.10000000)
		(3.30000000 0.10942791 0.10000000)
		(3.32000000 0.10942791 0.10000000)
		(3.34000000 0.10942791 0.10000000)
		(3.36000000 0.10942791 0.10000000)
		(3.38000000 0.10942791 0.10000000)
		(3.40000000 0.10942791 0.10000000)
		(3.42000000 0.10942791 0.10000000)
		(3.44000000 0.10942791 0.10000000)
		(3.46000000 0.10942791 0.10000000)
		(3.48000000 0.10942791 0.10000000)
		(3.50000000 0.10942791 0.10000000)
		(3.52000000 0.10942791 0.10000000)
		(3.54000000 0.10942791 0.10000000)
		(3.56000000 0.10942791 0.10000000)
		(3.58000000 0.10942791 0.10000000)
		(3.60000000 0.10942791 0.10000000)
		(3.62000000 0.10942791 0.10000000)
		(3.64000000 0.10942791 0.10000000)
		(3.66000000 0.10942791 0.10000000)
		(3.68000000 0.10942791 0.10000000)
		(3.70000000 0.10942791 0.10000000)
		(3.72000000 0.10942791 0.10000000)
		(3.74000000 0.10942791 0.10000000)
		(3.76000000 0.10942791 0.10000000)
		(3.78000000 0.10942791 0.10000000)
		(3.80000000 0.10942791 0.10000000)
		(3.82000000 0.10942791 0.10000000)
		(3.84000000 0.10942791 0.10000000)
		(3.86000000 0.10942791 0.10000000)
		(3.88000000 0.10942791 0.10000000)
		(3.90000000 0.10942791 0.10000000)
		(3.92000000 0.10942791 0.10000000)
		(3.94000000 0.10942791 0.10000000)
		(3.96000000 0.10942791 0.10000000)
		(3.98000000 0.10942791 0.10000000)
		(4.00000000 0.10942791 0.10000000)
	)
	polyLine 3 2
	(
		(-1.00000000 0.47550622 0.00000000)
		(-0.98000000 0.47560009 0.00000000)
		(-0.96000000 0.47569396 0.00000000)
		(-0.94000000 0.47578783 0.00000000)
		(-0.92000000 0.47588170 0.00000000)
		(-0.90000000 0.47597557 0.00000000)
		(-0.88000000 0.47606944 0.00000000)
		(-0.86000000 0.47616331 0.00000000)
		(-0.84000000 0.47625718 0.00000000)
		(-0.82000000 0.47635105 0.00000000)
		(-0.80000000 0.47644492 0.00000000)
		(-0.78000000 0.47653879 0.00000000)
		(-0.76000000 0.47663266 0.00000000)
		(-0.74000000 0.47672653 0.00000000)
		(-0.72000000 0.47682040 0.00000000)
		(-0.70000000 0.47691427 0.00000000)
		(-0.68000000 0.47700814 0.00000000)
		(-0.66000000 0.47710201 0.00000000)
		(-0.64000000 0.47719588 0.00000000)
		(-0.62000000 0.47728975 0.00000000)
		(-0.60000000 0.47738362 0.00000000)
		(-0.58000000 0.47747749 0.00000000)
		(-0.56000000 0.47757136 0.00000000)
		(-0.54000000 0.47766523 0.00000000)
		(-0.52000000 0.47775910 0.00000000)
		(-0.50000000 0.47785297 0.00000000)
		(-0.48000000 0.47794684 0.00000000)
		(-0.46000000 0.47804071 0.00000000)
		(-0.44000000 0.47813459 0.00000000)
		(-0.42000000 0.47822846 0.00000000)
		(-0.40000000 0.47832233 0.00000000)
		(-0.38000000 0.47841620 0.00000000)
		(-0.36000000 0.47851007 0.00000000)
		(-0.34000000 0.47860394 0.00000000)
		(-0.32000000 0.47869781 0.00000000)
		(-0.30000000 0.47879168 0.00000000)
		(-0.28000000 0.47888555 0.00000000)
		(-0.26000000 0.47897942 0.00000000)
		(-0.24000000 0.47907329 0.00000000)
		(-0.22000000 0.47916716 0.00000000)
		(-0.20000000 0.47926103 0.00000000)
		(-0.18000000 0.47935490 0.00000000)
		(-0.16000000 0.47944877 0.00000000)
		(-0.14000000 0.47954264 0.00000000)
		(-0.12000000 0.47963651 0.00000000)
		(-0.10000000 0.47973038 0.00000000)
		(-0.08162011 0.47930242 0.00000000)
		(-0.06324022 0.48061608 0.00000000)
		(-0.04486034 0.48367137 0.00000000)
		(-0.02648045 0.48846829 0.00000000)
		(-0.00810056 0.49500682 0.00000000)
		(0.01027933 0.50328698 0.00000000)
		(0.02865922 0.51330877 0.00000000)
		(0.04703911 0.52507218 0.00000000)
		(0.06541899 0.53857721 0.00000000)
		(0.08379888 0.55382387 0.00000000)
		(0.10055866 0.56801450 0.00000000)
		(0.11731844 0.58184003 0.00000000)
		(0.13407821 0.59522626 0.00000000)
		(0.15083799 0.60810131 0.00000000)
		(0.16759777 0.62039609 0.00000000)
		(0.18435754 0.63204460 0.00000000)
		(0.20111732 0.64298430 0.00000000)
		(0.21787709 0.65315647 0.00000000)
		(0.23463687 0.66250651 0.00000000)
		(0.25139665 0.67098423 0.00000000)
		(0.26815642 0.67854413 0.00000000)
		(0.28491620 0.68514561 0.00000000)
		(0.30167598 0.69075325 0.00000000)
		(0.31843575 0.69533694 0.00000000)
		(0.33519553 0.69887208 0.00000000)
		(0.35195531 0.70133969 0.00000000)
		(0.36871508 0.70272653 0.00000000)
		(0.38547486 0.70302516 0.00000000)
		(0.40223464 0.70223396 0.00000000)
		(0.41899441 0.70035718 0.00000000)
		(0.43575419 0.69740491 0.00000000)
		(0.45251397 0.69339298 0.00000000)
		(0.46927374 0.68834294 0.00000000)
		(0.48603352 0.68228189 0.00000000)
		(0.50279330 0.67524237 0.00000000)
		(0.51955307 0.66726216 0.00000000)
		(0.53631285 0.65838410 0.00000000)
		(0.55307263 0.64865585 0.00000000)
		(0.56983240 0.63812963 0.00000000)
		(0.58659218 0.62686194 0.00000000)
		(0.60335196 0.61491327 0.00000000)
		(0.62011173 0.60234775 0.00000000)
		(0.63687151 0.58923284 0.00000000)
		(0.65363128 0.57563894 0.00000000)
		(0.67039106 0.56163901 0.00000000)
		(0.68715084 0.54730821 0.00000000)
		(0.70391061 0.53272346 0.00000000)
		(0.72067039 0.51796306 0.00000000)
		(0.73743017 0.50310623 0.00000000)
		(0.75418994 0.48823273 0.00000000)
		(0.77094972 0.47342240 0.00000000)
		(0.78770950 0.45875473 0.00000000)
		(0.80446927 0.44430846 0.00000000)
		(0.82122905 0.43016114 0.00000000)
		(0.83798883 0.41638870 0.00000000)
		(0.85474860 0.40306509 0.00000000)
		(0.87150838 0.39026181 0.00000000)
		(0.88826816 0.37804760 0.00000000)
		(0.90502793 0.36648802 0.00000000)
		(0.92178771 0.35564512 0.00000000)
		(0.93854749 0.34557710 0.00000000)
		(0.95530726 0.33633802 0.00000000)
		(0.97206704 0.32797745 0.00000000)
		(0.98882682 0.32054029 0.00000000)
		(1.00558659 0.31406645 0.00000000)
		(1.02234637 0.30859068 0.00000000)
		(1.03910615 0.30414239 0.00000000)
		(1.05586592 0.30074544 0.00000000)
		(1.07262570 0.29841807 0.00000000)
		(1.08938547 0.29717277 0.00000000)
		(1.10614525 0.29701624 0.00000000)
		(1.12290503 0.29794930 0.00000000)
		(1.13966480 0.29996695 0.00000000)
		(1.15642458 0.30305837 0.00000000)
		(1.17318436 0.30720694 0.00000000)
		(1.18994413 0.31239042 0.00000000)
		(1.20670391 0.31858096 0.00000000)
		(1.22346369 0.32574535 0.00000000)
		(1.24022346 0.33384512 0.00000000)
		(1.25698324 0.34283680 0.00000000)
		(1.27374302 0.35267211 0.00000000)
		(1.29050279 0.36329827 0.00000000)
		(1.30726257 0.37465823 0.00000000)
		(1.32402235 0.38669101 0.00000000)
		(1.34078212 0.39933203 0.00000000)
		(1.35754190 0.41251342 0.00000000)
		(1.37430168 0.42616443 0.00000000)
		(1.39106145 0.44021179 0.00000000)
		(1.40782123 0.45458008 0.00000000)
		(1.42458101 0.46919219 0.00000000)
		(1.44134078 0.48396966 0.00000000)
		(1.45810056 0.49883319 0.00000000)
		(1.47486034 0.51370298 0.00000000)
		(1.49162011 0.52849921 0.00000000)
		(1.50837989 0.54314247 0.00000000)
		(1.52513966 0.55755413 0.00000000)
		(1.54189944 0.57165686 0.00000000)
		(1.55865922 0.58537493 0.00000000)
		(1.57541899 0.59863472 0.00000000)
		(1.59217877 0.61136505 0.00000000)
		(1.60893855 0.62349758 0.00000000)
		(1.62569832 0.63496718 0.00000000)
		(1.64245810 0.64571229 0.00000000)
		(1.65921788 0.65567524 0.00000000)
		(1.67597765 0.66480253 0.00000000)
		(1.69273743 0.67304517 0.00000000)
		(1.70949721 0.68035893 0.00000000)
		(1.72625698 0.68670453 0.00000000)
		(1.74301676 0.69204792 0.00000000)
		(1.75977654 0.69636042 0.00000000)
		(1.77653631 0.69961887 0.00000000)
		(1.79329609 0.70180578 0.00000000)
		(1.81005587 0.70290941 0.00000000)
		(1.82681564 0.70292385 0.00000000)
		(1.84357542 0.70184901 0.00000000)
		(1.86033520 0.69969066 0.00000000)
		(1.87709497 0.69646039 0.00000000)
		(1.89385475 0.69217554 0.00000000)
		(1.91061453 0.68685911 0.00000000)
		(1.92737430 0.68053963 0.00000000)
		(1.94413408 0.67325103 0.00000000)
		(1.96089385 0.66503244 0.00000000)
		(1.97765363 0.65592797 0.00000000)
		(1.99441341 0.64598649 0.00000000)
		(2.01117318 0.63526136 0.00000000)
		(2.02793296 0.62381017 0.00000000)
		(2.04469274 0.61169437 0.00000000)
		(2.06145251 0.59897901 0.00000000)
		(2.07821229 0.58573234 0.00000000)
		(2.09497207 0.57202546 0.00000000)
		(2.11173184 0.55793196 0.00000000)
		(2.12849162 0.54352748 0.00000000)
		(2.14525140 0.52888936 0.00000000)
		(2.16201117 0.51409615 0.00000000)
		(2.17877095 0.49922728 0.00000000)
		(2.19553073 0.48436256 0.00000000)
		(2.21229050 0.46958178 0.00000000)
		(2.22905028 0.45496428 0.00000000)
		(2.24581006 0.44058853 0.00000000)
		(2.26256983 0.42653169 0.00000000)
		(2.27932961 0.41286923 0.00000000)
		(2.29608939 0.39967447 0.00000000)
		(2.31284916 0.38701825 0.00000000)
		(2.32960894 0.37496851 0.00000000)
		(2.34636872 0.36358993 0.00000000)
		(2.36312849 0.35294359 0.00000000)
		(2.37988827 0.34308663 0.00000000)
		(2.39664804 0.33407197 0.00000000)
		(2.41340782 0.32594799 0.00000000)
		(2.43016760 0.31875831 0.00000000)
		(2.44692737 0.31254152 0.00000000)
		(2.46368715 0.30733099 0.00000000)
		(2.48044693 0.30315470 0.00000000)
		(2.49720670 0.30003505 0.00000000)
		(2.51396648 0.29798879 0.00000000)