/*--------------------------------*- C++ -*----------------------------------*\\
/*--------------------------------*- C++ -*----------------------------------*\\
| =========                 |                                                 |
| \\\\      /  F ield         | OpenFOAM: The Open Source CFD Toolbox           |
|  \\\\    /   O peration     | Version:  v2012                                 |
|   \\\\  /    A nd           | Website:  www.openfoam.com                      |
|    \\\\/     M anipulation  |                                                 |
\\*---------------------------------------------------------------------------*/
FoamFile
{
    version     2.0;
    format      ascii;
    class       dictionary;
    object      blockMeshDict;
}
// * * * * * * * * * * * * * * * * * * * * * * * * * * * * * * * * * * * * * //

scale   0.01;

xmin -1;
xmax 5;
ymin 0;
ymax 0.5;
zmin 0;
zmax 0.1;

vertices
(
    (-1.00000000 -0.08973616 0.00000000)
    (4.00000000 0.05766066 0.00000000)
    (4.00000000 0.55766066 0.00000000)
    (-1.00000000 0.41026384 0.00000000)
    (-1.00000000 -0.08973616 0.10000000)
    (4.00000000 0.05766066 0.10000000)
    (4.00000000 0.55766066 0.10000000)
    (-1.00000000 0.41026384 0.10000000)
);

blocks
(
    hex (0 1 2 3 4 5 6 7) (200 20 1) simpleGrading (1 1 1)
);

edges
(
	polyLine 0 1
	(
		(-1.00000000 -0.08973616 0.00000000)
		(-0.98000000 -0.08973616 0.00000000)
		(-0.96000000 -0.08973616 0.00000000)
		(-0.94000000 -0.08973616 0.00000000)
		(-0.92000000 -0.08973616 0.00000000)
		(-0.90000000 -0.08973616 0.00000000)
		(-0.88000000 -0.08973616 0.00000000)
		(-0.86000000 -0.08973616 0.00000000)
		(-0.84000000 -0.08973616 0.00000000)
		(-0.82000000 -0.08973616 0.00000000)
		(-0.80000000 -0.08973616 0.00000000)
		(-0.78000000 -0.08973616 0.00000000)
		(-0.76000000 -0.08973616 0.00000000)
		(-0.74000000 -0.08973616 0.00000000)
		(-0.72000000 -0.08973616 0.00000000)
		(-0.70000000 -0.08973616 0.00000000)
		(-0.68000000 -0.08973616 0.00000000)
		(-0.66000000 -0.08973616 0.00000000)
		(-0.64000000 -0.08973616 0.00000000)
		(-0.62000000 -0.08973616 0.00000000)
		(-0.60000000 -0.08973616 0.00000000)
		(-0.58000000 -0.08973616 0.00000000)
		(-0.56000000 -0.08973616 0.00000000)
		(-0.54000000 -0.08973616 0.00000000)
		(-0.52000000 -0.08973616 0.00000000)
		(-0.50000000 -0.08973616 0.00000000)
		(-0.48000000 -0.08973616 0.00000000)
		(-0.46000000 -0.08973616 0.00000000)
		(-0.44000000 -0.08973616 0.00000000)
		(-0.42000000 -0.08973616 0.00000000)
		(-0.40000000 -0.08973616 0.00000000)
		(-0.38000000 -0.08973616 0.00000000)
		(-0.36000000 -0.08973616 0.00000000)
		(-0.34000000 -0.08973616 0.00000000)
		(-0.32000000 -0.08973616 0.00000000)
		(-0.30000000 -0.08973616 0.00000000)
		(-0.28000000 -0.08973616 0.00000000)
		(-0.26000000 -0.08973616 0.00000000)
		(-0.24000000 -0.08973616 0.00000000)
		(-0.22000000 -0.08973616 0.00000000)
		(-0.20000000 -0.08973616 0.00000000)
		(-0.18000000 -0.08973616 0.00000000)
		(-0.16000000 -0.08973616 0.00000000)
		(-0.14000000 -0.08973616 0.00000000)
		(-0.12000000 -0.08973616 0.00000000)
		(-0.10000000 -0.08973616 0.00000000)
		(-0.08162011 -0.08908868 0.00000000)
		(-0.06324022 -0.08714625 0.00000000)
		(-0.04486034 -0.08390886 0.00000000)
		(-0.02648045 -0.07937652 0.00000000)
		(-0.00810056 -0.07354922 0.00000000)
		(0.01027933 -0.06642697 0.00000000)
		(0.02865922 -0.05800976 0.00000000)
		(0.04703911 -0.04829760 0.00000000)
		(0.06541899 -0.03729048 0.00000000)
		(0.08379888 -0.02498841 0.00000000)
		(0.10055866 -0.01167515 0.00000000)
		(0.11731844 0.00167140 0.00000000)
		(0.13407821 0.01501318 0.00000000)
		(0.15083799 0.02831215 0.00000000)
		(0.16759777 0.04153040 0.00000000)
		(0.18435754 0.05463024 0.00000000)
		(0.20111732 0.06757431 0.00000000)
		(0.21787709 0.08032571 0.00000000)
		(0.23463687 0.09284809 0.00000000)
		(0.25139665 0.10510574 0.00000000)
		(0.26815642 0.11706370 0.00000000)
		(0.28491620 0.12868789 0.00000000)
		(0.30167598 0.13994517 0.00000000)
		(0.31843575 0.15080342 0.00000000)
		(0.33519553 0.16123170 0.00000000)
		(0.35195531 0.17120028 0.00000000)
		(0.36871508 0.18068072 0.00000000)
		(0.38547486 0.18964600 0.00000000)
		(0.40223464 0.19807056 0.00000000)
		(0.41899441 0.20593038 0.00000000)
		(0.43575419 0.21320304 0.00000000)
		(0.45251397 0.21986781 0.00000000)
		(0.46927374 0.22590568 0.00000000)
		(0.48603352 0.23129945 0.00000000)
		(0.50279330 0.23603373 0.00000000)
		(0.51955307 0.24009503 0.00000000)
		(0.53631285 0.24347176 0.00000000)
		(0.55307263 0.24615430 0.00000000)
		(0.56983240 0.24813499 0.00000000)
		(0.58659218 0.24940820 0.00000000)
		(0.60335196 0.24997029 0.00000000)
		(0.62011173 0.24981965 0.00000000)
		(0.63687151 0.24895673 0.00000000)
		(0.65363128 0.24738397 0.00000000)
		(0.67039106 0.24510586 0.00000000)
		(0.68715084 0.24212890 0.00000000)
		(0.70391061 0.23846158 0.00000000)
		(0.72067039 0.23411435 0.00000000)
		(0.73743017 0.22909961 0.00000000)
		(0.75418994 0.22343165 0.00000000)
		(0.77094972 0.21712663 0.00000000)
		(0.78770950 0.21020254 0.00000000)
		(0.80446927 0.20267912 0.00000000)
		(0.82122905 0.19457781 0.00000000)
		(0.83798883 0.18592171 0.00000000)
		(0.85474860 0.17673551 0.00000000)
		(0.87150838 0.16704540 0.00000000)
		(0.88826816 0.15687900 0.00000000)
		(0.90502793 0.14626531 0.00000000)
		(0.92178771 0.13523458 0.00000000)
		(0.93854749 0.12381827 0.00000000)
		(0.95530726 0.11204892 0.00000000)
		(0.97206704 0.09996009 0.00000000)
		(0.98882682 0.08758626 0.00000000)
		(1.00558659 0.07496270 0.00000000)
		(1.02234637 0.06212540 0.00000000)
		(1.03910615 0.04911097 0.00000000)
		(1.05586592 0.03595651 0.00000000)
		(1.07262570 0.02269953 0.00000000)
		(1.08938547 0.00937783 0.00000000)
		(1.10614525 -0.00397061 0.00000000)
		(1.12290503 -0.01730772 0.00000000)
		(1.13966480 -0.03059549 0.00000000)
		(1.15642458 -0.04379603 0.00000000)
		(1.17318436 -0.05687169 0.00000000)
		(1.18994413 -0.06978520 0.00000000)
		(1.20670391 -0.08249973 0.00000000)
		(1.22346369 -0.09497904 0.00000000)
		(1.24022346 -0.10718754 0.00000000)
		(1.25698324 -0.11909043 0.00000000)
		(1.27374302 -0.13065376 0.00000000)
		(1.29050279 -0.14184457 0.00000000)
		(1.30726257 -0.15263095 0.00000000)
		(1.32402235 -0.16298214 0.00000000)
		(1.34078212 -0.17286863 0.00000000)
		(1.35754190 -0.18226224 0.00000000)
		(1.37430168 -0.19113617 0.00000000)
		(1.39106145 -0.19946513 0.00000000)
		(1.40782123 -0.20722538 0.00000000)
		(1.42458101 -0.21439477 0.00000000)
		(1.44134078 -0.22095288 0.00000000)
		(1.45810056 -0.22688100 0.00000000)
		(1.47486034 -0.23216223 0.00000000)
		(1.49162011 -0.23678152 0.00000000)
		(1.50837989 -0.24072568 0.00000000)
		(1.52513966 -0.24398349 0.00000000)
		(1.54189944 -0.24654564 0.00000000)
		(1.55865922 -0.24840483 0.00000000)
		(1.57541899 -0.24955577 0.00000000)
		(1.59217877 -0.24999516 0.00000000)
		(1.60893855 -0.24972177 0.00000000)
		(1.62569832 -0.24873636 0.00000000)
		(1.64245810 -0.24704174 0.00000000)
		(1.65921788 -0.24464276 0.00000000)
		(1.67597765 -0.24154624 0.00000000)
		(1.69273743 -0.23776102 0.00000000)
		(1.70949721 -0.23329788 0.00000000)
		(1.72625698 -0.22816957 0.00000000)
		(1.74301676 -0.22239069 0.00000000)
		(1.75977654 -0.21597772 0.00000000)
		(1.77653631 -0.20894895 0.00000000)
		(1.79329609 -0.20132443 0.00000000)
		(1.81005587 -0.19312588 0.00000000)
		(1.82681564 -0.18437668 0.00000000)
		(1.84357542 -0.17510179 0.00000000)
		(1.86033520 -0.16532764 0.00000000)
		(1.87709497 -0.15508210 0.00000000)
		(1.89385475 -0.14439439 0.00000000)
		(1.91061453 -0.13329498 0.00000000)
		(1.92737430 -0.12181551 0.00000000)
		(1.94413408 -0.10998872 0.00000000)
		(1.96089385 -0.09784833 0.00000000)
		(1.97765363 -0.08542895 0.00000000)
		(1.99441341 -0.07276599 0.00000000)
		(2.01117318 -0.05989556 0.00000000)
		(2.02793296 -0.04685436 0.00000000)
		(2.04469274 -0.03367956 0.00000000)
		(2.06145251 -0.02040873 0.00000000)
		(2.07821229 -0.00707972 0.00000000)
		(2.09497207 0.00626948 0.00000000)
		(2.11173184 0.01960081 0.00000000)
		(2.12849162 0.03287625 0.00000000)
		(2.14525140 0.04605795 0.00000000)
		(2.16201117 0.05910833 0.00000000)
		(2.17877095 0.07199018 0.00000000)
		(2.19553073 0.08466677 0.00000000)
		(2.21229050 0.09710195 0.00000000)
		(2.22905028 0.10926028 0.00000000)
		(2.24581006 0.12110708 0.00000000)
		(2.26256983 0.13260857 0.00000000)
		(2.27932961 0.14373197 0.00000000)
		(2.29608939 0.15444556 0.00000000)
		(2.31284916 0.16471878 0.00000000)
		(2.32960894 0.17452236 0.00000000)
		(2.34636872 0.18382833 0.00000000)
		(2.36312849 0.19261017 0.00000000)
		(2.37988827 0.20084283 0.00000000)
		(2.39664804 0.20850285 0.00000000)
		(2.41340782 0.21556837 0.00000000)
		(2.43016760 0.22201926 0.00000000)
		(2.44692737 0.22783713 0.00000000)
		(2.46368715 0.23300537 0.00000000)
		(2.48044693 0.23750927 0.00000000)
		(2.49720670 0.24133598 0.00000000)
		(2.51396648 0.24447458 0.00000000)
		(2.53072626 0.24691612 0.00000000)
		(2.54748603 0.24865366 0.00000000)
		(2.56424581 0.24968223 0.00000000)
		(2.58100559 0.24999889 0.00000000)
		(2.59776536 0.24960275 0.00000000)
		(2.61452514 0.24849494 0.00000000)
		(2.63128492 0.24667862 0.00000000)
		(2.64804469 0.24415895 0.00000000)
		(2.66480447 0.24094314 0.00000000)
		(2.68156425 0.23704034 0.00000000)
		(2.69832402 0.23246168 0.00000000)
		(2.71508380 0.22722023 0.00000000)
		(2.73184358 0.22133092 0.00000000)
		(2.74860335 0.21481054 0.00000000)
		(2.76536313 0.20767769 0.00000000)
		(2.78212291 0.19995270 0.00000000)
		(2.79888268 0.19165761 0.00000000)
		(2.81564246 0.18281605 0.00000000)
		(2.83240223 0.17345324 0.00000000)
		(2.84916201 0.16359588 0.00000000)
		(2.86592179 0.15327207 0.00000000)
		(2.88268156 0.14251125 0.00000000)
		(2.89944134 0.13134410 0.00000000)
		(2.91620112 0.11980245 0.00000000)
		(2.93296089 0.10791922 0.00000000)
		(2.95166480 0.09837009 0.00000000)
		(2.97036872 0.08982614 0.00000000)
		(2.98907263 0.08228736 0.00000000)
		(3.00777654 0.07575374 0.00000000)
		(3.02648045 0.07022530 0.00000000)
		(3.04518436 0.06570203 0.00000000)
		(3.06388827 0.06218393 0.00000000)
		(3.08259218 0.05967100 0.00000000)
		(3.10129609 0.05816325 0.00000000)
		(3.12000000 0.05766066 0.00000000)
		(3.14000000 0.05766066 0.00000000)
		(3.16000000 0.05766066 0.00000000)
		(3.18000000 0.05766066 0.00000000)
		(3.20000000 0.05766066 0.00000000)
		(3.22000000 0.05766066 0.00000000)
		(3.24000000 0.05766066 0.00000000)
		(3.26000000 0.05766066 0.00000000)
		(3.28000000 0.05766066 0.00000000)
		(3.30000000 0.05766066 0.00000000)
		(3.32000000 0.05766066 0.00000000)
		(3.34000000 0.05766066 0.00000000)
		(3.36000000 0.05766066 0.00000000)
		(3.38000000 0.05766066 0.00000000)
		(3.40000000 0.05766066 0.00000000)
		(3.42000000 0.05766066 0.00000000)
		(3.44000000 0.05766066 0.00000000)
		(3.46000000 0.05766066 0.00000000)
		(3.48000000 0.05766066 0.00000000)
		(3.50000000 0.05766066 0.00000000)
		(3.52000000 0.05766066 0.00000000)
		(3.54000000 0.05766066 0.00000000)
		(3.56000000 0.05766066 0.00000000)
		(3.58000000 0.05766066 0.00000000)
		(3.60000000 0.05766066 0.00000000)
		(3.62000000 0.05766066 0.00000000)
		(3.64000000 0.05766066 0.00000000)
		(3.66000000 0.05766066 0.00000000)
		(3.68000000 0.05766066 0.00000000)
		(3.70000000 0.05766066 0.00000000)
		(3.72000000 0.05766066 0.00000000)
		(3.74000000 0.05766066 0.00000000)
		(3.76000000 0.05766066 0.00000000)
		(3.78000000 0.05766066 0.00000000)
		(3.80000000 0.05766066 0.00000000)
		(3.82000000 0.05766066 0.00000000)
		(3.84000000 0.05766066 0.00000000)
		(3.86000000 0.05766066 0.00000000)
		(3.88000000 0.05766066 0.00000000)
		(3.90000000 0.05766066 0.00000000)
		(3.92000000 0.05766066 0.00000000)
		(3.94000000 0.05766066 0.00000000)
		(3.96000000 0.05766066 0.00000000)
		(3.98000000 0.05766066 0.00000000)
		(4.00000000 0.05766066 0.00000000)
	)
	polyLine 4 5
	(
		(-1.00000000 -0.08973616 0.10000000)
		(-0.98000000 -0.08973616 0.10000000)
		(-0.96000000 -0.08973616 0.10000000)
		(-0.94000000 -0.08973616 0.10000000)
		(-0.92000000 -0.08973616 0.10000000)
		(-0.90000000 -0.08973616 0.10000000)
		(-0.88000000 -0.08973616 0.10000000)
		(-0.86000000 -0.08973616 0.10000000)
		(-0.84000000 -0.08973616 0.10000000)
		(-0.82000000 -0.08973616 0.10000000)
		(-0.80000000 -0.08973616 0.10000000)
		(-0.78000000 -0.08973616 0.10000000)
		(-0.76000000 -0.08973616 0.10000000)
		(-0.74000000 -0.08973616 0.10000000)
		(-0.72000000 -0.08973616 0.10000000)
		(-0.70000000 -0.08973616 0.10000000)
		(-0.68000000 -0.08973616 0.10000000)
		(-0.66000000 -0.08973616 0.10000000)
		(-0.64000000 -0.08973616 0.10000000)
		(-0.62000000 -0.08973616 0.10000000)
		(-0.60000000 -0.08973616 0.10000000)
		(-0.58000000 -0.08973616 0.10000000)
		(-0.56000000 -0.08973616 0.10000000)
		(-0.54000000 -0.08973616 0.10000000)
		(-0.52000000 -0.08973616 0.10000000)
		(-0.50000000 -0.08973616 0.10000000)
		(-0.48000000 -0.08973616 0.10000000)
		(-0.46000000 -0.08973616 0.10000000)
		(-0.44000000 -0.08973616 0.10000000)
		(-0.42000000 -0.08973616 0.10000000)
		(-0.40000000 -0.08973616 0.10000000)
		(-0.38000000 -0.08973616 0.10000000)
		(-0.36000000 -0.08973616 0.10000000)
		(-0.34000000 -0.08973616 0.10000000)
		(-0.32000000 -0.08973616 0.10000000)
		(-0.30000000 -0.08973616 0.10000000)
		(-0.28000000 -0.08973616 0.10000000)
		(-0.26000000 -0.08973616 0.10000000)
		(-0.24000000 -0.08973616 0.10000000)
		(-0.22000000 -0.08973616 0.10000000)
		(-0.20000000 -0.08973616 0.10000000)
		(-0.18000000 -0.08973616 0.10000000)
		(-0.16000000 -0.08973616 0.10000000)
		(-0.14000000 -0.08973616 0.10000000)
		(-0.12000000 -0.08973616 0.10000000)
		(-0.10000000 -0.08973616 0.10000000)
		(-0.08162011 -0.08908868 0.10000000)
		(-0.06324022 -0.08714625 0.10000000)
		(-0.04486034 -0.08390886 0.10000000)
		(-0.02648045 -0.07937652 0.10000000)
		(-0.00810056 -0.07354922 0.10000000)
		(0.01027933 -0.06642697 0.10000000)
		(0.02865922 -0.05800976 0.10000000)
		(0.04703911 -0.04829760 0.10000000)
		(0.06541899 -0.03729048 0.10000000)
		(0.08379888 -0.02498841 0.10000000)
		(0.10055866 -0.01167515 0.10000000)
		(0.11731844 0.00167140 0.10000000)
		(0.13407821 0.01501318 0.10000000)
		(0.15083799 0.02831215 0.10000000)
		(0.16759777 0.04153040 0.10000000)
		(0.18435754 0.05463024 0.10000000)
		(0.20111732 0.06757431 0.10000000)
		(0.21787709 0.08032571 0.10000000)
		(0.23463687 0.09284809 0.10000000)
		(0.25139665 0.10510574 0.10000000)
		(0.26815642 0.11706370 0.10000000)
		(0.28491620 0.12868789 0.10000000)
		(0.30167598 0.13994517 0.10000000)
		(0.31843575 0.15080342 0.10000000)
		(0.33519553 0.16123170 0.10000000)
		(0.35195531 0.17120028 0.10000000)
		(0.36871508 0.18068072 0.10000000)
		(0.38547486 0.18964600 0.10000000)
		(0.40223464 0.19807056 0.10000000)
		(0.41899441 0.20593038 0.10000000)
		(0.43575419 0.21320304 0.10000000)
		(0.45251397 0.21986781 0.10000000)
		(0.46927374 0.22590568 0.10000000)
		(0.48603352 0.23129945 0.10000000)
		(0.50279330 0.23603373 0.10000000)
		(0.51955307 0.24009503 0.10000000)
		(0.53631285 0.24347176 0.10000000)
		(0.55307263 0.24615430 0.10000000)
		(0.56983240 0.24813499 0.10000000)
		(0.58659218 0.24940820 0.10000000)
		(0.60335196 0.24997029 0.10000000)
		(0.62011173 0.24981965 0.10000000)
		(0.63687151 0.24895673 0.10000000)
		(0.65363128 0.24738397 0.10000000)
		(0.67039106 0.24510586 0.10000000)
		(0.68715084 0.24212890 0.10000000)
		(0.70391061 0.23846158 0.10000000)
		(0.72067039 0.23411435 0.10000000)
		(0.73743017 0.22909961 0.10000000)
		(0.75418994 0.22343165 0.10000000)
		(0.77094972 0.21712663 0.10000000)
		(0.78770950 0.21020254 0.10000000)
		(0.80446927 0.20267912 0.10000000)
		(0.82122905 0.19457781 0.10000000)
		(0.83798883 0.18592171 0.10000000)
		(0.85474860 0.17673551 0.10000000)
		(0.87150838 0.16704540 0.10000000)
		(0.88826816 0.15687900 0.10000000)
		(0.90502793 0.14626531 0.10000000)
		(0.92178771 0.13523458 0.10000000)
		(0.93854749 0.12381827 0.10000000)
		(0.95530726 0.11204892 0.10000000)
		(0.97206704 0.09996009 0.10000000)
		(0.98882682 0.08758626 0.10000000)
		(1.00558659 0.07496270 0.10000000)
		(1.02234637 0.06212540 0.10000000)
		(1.03910615 0.04911097 0.10000000)
		(1.05586592 0.03595651 0.10000000)
		(1.07262570 0.02269953 0.10000000)
		(1.08938547 0.00937783 0.10000000)
		(1.10614525 -0.00397061 0.10000000)
		(1.12290503 -0.01730772 0.10000000)
		(1.13966480 -0.03059549 0.10000000)
		(1.15642458 -0.04379603 0.10000000)
		(1.17318436 -0.05687169 0.10000000)
		(1.18994413 -0.06978520 0.10000000)
		(1.20670391 -0.08249973 0.10000000)
		(1.22346369 -0.09497904 0.10000000)
		(1.24022346 -0.10718754 0.10000000)
		(1.25698324 -0.11909043 0.10000000)
		(1.27374302 -0.13065376 0.10000000)
		(1.29050279 -0.14184457 0.10000000)
		(1.30726257 -0.15263095 0.10000000)
		(1.32402235 -0.16298214 0.10000000)
		(1.34078212 -0.17286863 0.10000000)
		(1.35754190 -0.18226224 0.10000000)
		(1.37430168 -0.19113617 0.10000000)
		(1.39106145 -0.19946513 0.10000000)
		(1.40782123 -0.20722538 0.10000000)
		(1.42458101 -0.21439477 0.10000000)
		(1.44134078 -0.22095288 0.10000000)
		(1.45810056 -0.22688100 0.10000000)
		(1.47486034 -0.23216223 0.10000000)
		(1.49162011 -0.23678152 0.10000000)
		(1.50837989 -0.24072568 0.10000000)
		(1.52513966 -0.24398349 0.10000000)
		(1.54189944 -0.24654564 0.10000000)
		(1.55865922 -0.24840483 0.10000000)
		(1.57541899 -0.24955577 0.10000000)
		(1.59217877 -0.24999516 0.10000000)
		(1.60893855 -0.24972177 0.10000000)
		(1.62569832 -0.24873636 0.10000000)
		(1.64245810 -0.24704174 0.10000000)
		(1.65921788 -0.24464276 0.10000000)
		(1.67597765 -0.24154624 0.10000000)
		(1.69273743 -0.23776102 0.10000000)
		(1.70949721 -0.23329788 0.10000000)
		(1.72625698 -0.22816957 0.10000000)
		(1.74301676 -0.22239069 0.10000000)
		(1.75977654 -0.21597772 0.10000000)
		(1.77653631 -0.20894895 0.10000000)
		(1.79329609 -0.20132443 0.10000000)
		(1.81005587 -0.19312588 0.10000000)
		(1.82681564 -0.18437668 0.10000000)
		(1.84357542 -0.17510179 0.10000000)
		(1.86033520 -0.16532764 0.10000000)
		(1.87709497 -0.15508210 0.10000000)
		(1.89385475 -0.14439439 0.10000000)
		(1.91061453 -0.13329498 0.10000000)
		(1.92737430 -0.12181551 0.10000000)
		(1.94413408 -0.10998872 0.10000000)
		(1.96089385 -0.09784833 0.10000000)
		(1.97765363 -0.08542895 0.10000000)
		(1.99441341 -0.07276599 0.10000000)
		(2.01117318 -0.05989556 0.10000000)
		(2.02793296 -0.04685436 0.10000000)
		(2.04469274 -0.03367956 0.10000000)
		(2.06145251 -0.02040873 0.10000000)
		(2.07821229 -0.00707972 0.10000000)
		(2.09497207 0.00626948 0.10000000)
		(2.11173184 0.01960081 0.10000000)
		(2.12849162 0.03287625 0.10000000)
		(2.14525140 0.04605795 0.10000000)
		(2.16201117 0.05910833 0.10000000)
		(2.17877095 0.07199018 0.10000000)
		(2.19553073 0.08466677 0.10000000)
		(2.21229050 0.09710195 0.10000000)
		(2.22905028 0.10926028 0.10000000)
		(2.24581006 0.12110708 0.10000000)
		(2.26256983 0.13260857 0.10000000)
		(2.27932961 0.14373197 0.10000000)
		(2.29608939 0.15444556 0.10000000)
		(2.31284916 0.16471878 0.10000000)
		(2.32960894 0.17452236 0.10000000)
		(2.34636872 0.18382833 0.10000000)
		(2.36312849 0.19261017 0.10000000)
		(2.37988827 0.20084283 0.10000000)
		(2.39664804 0.20850285 0.10000000)
		(2.41340782 0.21556837 0.10000000)
		(2.43016760 0.22201926 0.10000000)
		(2.44692737 0.22783713 0.10000000)
		(2.46368715 0.23300537 0.10000000)
		(2.48044693 0.23750927 0.10000000)
		(2.49720670 0.24133598 0.10000000)
		(2.51396648 0.24447458 0.10000000)
		(2.53072626 0.24691612 0.10000000)
		(2.54748603 0.24865366 0.10000000)
		(2.56424581 0.24968223 0.10000000)
		(2.58100559 0.24999889 0.10000000)
		(2.59776536 0.24960275 0.10000000)
		(2.61452514 0.24849494 0.10000000)
		(2.63128492 0.24667862 0.10000000)
		(2.64804469 0.24415895 0.10000000)
		(2.66480447 0.24094314 0.10000000)
		(2.68156425 0.23704034 0.10000000)
		(2.69832402 0.23246168 0.10000000)
		(2.71508380 0.22722023 0.10000000)
		(2.73184358 0.22133092 0.10000000)
		(2.74860335 0.21481054 0.10000000)
		(2.76536313 0.20767769 0.10000000)
		(2.78212291 0.19995270 0.10000000)
		(2.79888268 0.19165761 0.10000000)
		(2.81564246 0.18281605 0.10000000)
		(2.83240223 0.17345324 0.10000000)
		(2.84916201 0.16359588 0.10000000)
		(2.86592179 0.15327207 0.10000000)
		(2.88268156 0.14251125 0.10000000)
		(2.89944134 0.13134410 0.10000000)
		(2.91620112 0.11980245 0.10000000)
		(2.93296089 0.10791922 0.10000000)
		(2.95166480 0.09837009 0.10000000)
		(2.97036872 0.08982614 0.10000000)
		(2.98907263 0.08228736 0.10000000)
		(3.00777654 0.07575374 0.10000000)
		(3.02648045 0.07022530 0.10000000)
		(3.04518436 0.06570203 0.10000000)
		(3.06388827 0.06218393 0.10000000)
		(3.08259218 0.05967100 0.10000000)
		(3.10129609 0.05816325 0.10000000)
		(3.12000000 0.05766066 0.10000000)
		(3.14000000 0.05766066 0.10000000)
		(3.16000000 0.05766066 0.10000000)
		(3.18000000 0.05766066 0.10000000)
		(3.20000000 0.05766066 0.10000000)
		(3.22000000 0.05766066 0.10000000)
		(3.24000000 0.05766066 0.10000000)
		(3.26000000 0.05766066 0.10000000)
		(3.28000000 0.05766066 0.10000000)
		(3.30000000 0.05766066 0.10000000)
		(3.32000000 0.05766066 0.10000000)
		(3.34000000 0.05766066 0.10000000)
		(3.36000000 0.05766066 0.10000000)
		(3.38000000 0.05766066 0.10000000)
		(3.40000000 0.05766066 0.10000000)
		(3.42000000 0.05766066 0.10000000)
		(3.44000000 0.05766066 0.10000000)
		(3.46000000 0.05766066 0.10000000)
		(3.48000000 0.05766066 0.10000000)
		(3.50000000 0.05766066 0.10000000)
		(3.52000000 0.05766066 0.10000000)
		(3.54000000 0.05766066 0.10000000)
		(3.56000000 0.05766066 0.10000000)
		(3.58000000 0.05766066 0.10000000)
		(3.60000000 0.05766066 0.10000000)
		(3.62000000 0.05766066 0.10000000)
		(3.64000000 0.05766066 0.10000000)
		(3.66000000 0.05766066 0.10000000)
		(3.68000000 0.05766066 0.10000000)
		(3.70000000 0.05766066 0.10000000)
		(3.72000000 0.05766066 0.10000000)
		(3.74000000 0.05766066 0.10000000)
		(3.76000000 0.05766066 0.10000000)
		(3.78000000 0.05766066 0.10000000)
		(3.80000000 0.05766066 0.10000000)
		(3.82000000 0.05766066 0.10000000)
		(3.84000000 0.05766066 0.10000000)
		(3.86000000 0.05766066 0.10000000)
		(3.88000000 0.05766066 0.10000000)
		(3.90000000 0.05766066 0.10000000)
		(3.92000000 0.05766066 0.10000000)
		(3.94000000 0.05766066 0.10000000)
		(3.96000000 0.05766066 0.10000000)
		(3.98000000 0.05766066 0.10000000)
		(4.00000000 0.05766066 0.10000000)
	)
	polyLine 3 2
	(
		(-1.00000000 0.41026384 0.00000000)
		(-0.98000000 0.41095265 0.00000000)
		(-0.96000000 0.41164145 0.00000000)
		(-0.94000000 0.41233025 0.00000000)
		(-0.92000000 0.41301906 0.00000000)
		(-0.90000000 0.41370786 0.00000000)
		(-0.88000000 0.41439666 0.00000000)
		(-0.86000000 0.41508547 0.00000000)
		(-0.84000000 0.41577427 0.00000000)
		(-0.82000000 0.41646307 0.00000000)
		(-0.80000000 0.41715188 0.00000000)
		(-0.78000000 0.41784068 0.00000000)
		(-0.76000000 0.41852948 0.00000000)
		(-0.74000000 0.41921829 0.00000000)
		(-0.72000000 0.41990709 0.00000000)
		(-0.70000000 0.42059589 0.00000000)
		(-0.68000000 0.42128470 0.00000000)
		(-0.66000000 0.42197350 0.00000000)
		(-0.64000000 0.42266230 0.00000000)
		(-0.62000000 0.42335111 0.00000000)
		(-0.60000000 0.42403991 0.00000000)
		(-0.58000000 0.42472871 0.00000000)
		(-0.56000000 0.42541752 0.00000000)
		(-0.54000000 0.42610632 0.00000000)
		(-0.52000000 0.42679512 0.00000000)
		(-0.50000000 0.42748393 0.00000000)
		(-0.48000000 0.42817273 0.00000000)
		(-0.46000000 0.42886153 0.00000000)
		(-0.44000000 0.42955034 0.00000000)
		(-0.42000000 0.43023914 0.00000000)
		(-0.40000000 0.43092794 0.00000000)
		(-0.38000000 0.43161675 0.00000000)
		(-0.36000000 0.43230555 0.00000000)
		(-0.34000000 0.43299435 0.00000000)
		(-0.32000000 0.43368316 0.00000000)
		(-0.30000000 0.43437196 0.00000000)
		(-0.28000000 0.43506076 0.00000000)
		(-0.26000000 0.43574957 0.00000000)
		(-0.24000000 0.43643837 0.00000000)
		(-0.22000000 0.43712717 0.00000000)
		(-0.20000000 0.43781598 0.00000000)
		(-0.18000000 0.43850478 0.00000000)
		(-0.16000000 0.43919358 0.00000000)
		(-0.14000000 0.43988239 0.00000000)
		(-0.12000000 0.44057119 0.00000000)
		(-0.10000000 0.44125999 0.00000000)
		(-0.08162011 0.44147092 0.00000000)
		(-0.06324022 0.44259386 0.00000000)
		(-0.04486034 0.44462882 0.00000000)
		(-0.02648045 0.44757581 0.00000000)
		(-0.00810056 0.45143481 0.00000000)
		(0.01027933 0.45620584 0.00000000)
		(0.02865922 0.46188890 0.00000000)
		(0.04703911 0.46848397 0.00000000)
		(0.06541899 0.47599106 0.00000000)
		(0.08379888 0.48441018 0.00000000)
		(0.10055866 0.49271608 0.00000000)
		(0.11731844 0.50104275 0.00000000)
		(0.13407821 0.50936645 0.00000000)
		(0.15083799 0.51766345 0.00000000)
		(0.16759777 0.52591008 0.00000000)
		(0.18435754 0.53408283 0.00000000)
		(0.20111732 0.54215841 0.00000000)
		(0.21787709 0.55011378 0.00000000)
		(0.23463687 0.55792627 0.00000000)
		(0.25139665 0.56557360 0.00000000)
		(0.26815642 0.57303396 0.00000000)
		(0.28491620 0.58028609 0.00000000)
		(0.30167598 0.58730930 0.00000000)
		(0.31843575 0.59408357 0.00000000)
		(0.33519553 0.60058959 0.00000000)
		(0.35195531 0.60680881 0.00000000)
		(0.36871508 0.61272349 0.00000000)
		(0.38547486 0.61831677 0.00000000)
		(0.40223464 0.62357270 0.00000000)
		(0.41899441 0.62847630 0.00000000)
		(0.43575419 0.63301358 0.00000000)
		(0.45251397 0.63717161 0.00000000)
		(0.46927374 0.64093854 0.00000000)
		(0.48603352 0.64430361 0.00000000)
		(0.50279330 0.64725725 0.00000000)
		(0.51955307 0.64979102 0.00000000)
		(0.53631285 0.65189770 0.00000000)
		(0.55307263 0.65357129 0.00000000)
		(0.56983240 0.65480701 0.00000000)
		(0.58659218 0.65560134 0.00000000)
		(0.60335196 0.65595201 0.00000000)
		(0.62011173 0.65585804 0.00000000)
		(0.63687151 0.65531967 0.00000000)
		(0.65363128 0.65433846 0.00000000)
		(0.67039106 0.65291719 0.00000000)
		(0.68715084 0.65105991 0.00000000)
		(0.70391061 0.64877194 0.00000000)
		(0.72067039 0.64605978 0.00000000)
		(0.73743017 0.64293117 0.00000000)
		(0.75418994 0.63939503 0.00000000)
		(0.77094972 0.63546144 0.00000000)
		(0.78770950 0.63114163 0.00000000)
		(0.80446927 0.62644790 0.00000000)
		(0.82122905 0.62139363 0.00000000)
		(0.83798883 0.61599325 0.00000000)
		(0.85474860 0.61026214 0.00000000)
		(0.87150838 0.60421665 0.00000000)
		(0.88826816 0.59787402 0.00000000)
		(0.90502793 0.59125232 0.00000000)
		(0.92178771 0.58437045 0.00000000)
		(0.93854749 0.57724801 0.00000000)
		(0.95530726 0.56990533 0.00000000)
		(0.97206704 0.56236332 0.00000000)
		(0.98882682 0.55464351 0.00000000)
		(1.00558659 0.54676789 0.00000000)
		(1.02234637 0.53875893 0.00000000)
		(1.03910615 0.53063946 0.00000000)
		(1.05586592 0.52243263 0.00000000)
		(1.07262570 0.51416183 0.00000000)
		(1.08938547 0.50585066 0.00000000)
		(1.10614525 0.49752281 0.00000000)
		(1.12290503 0.48920202 0.00000000)
		(1.13966480 0.48091202 0.00000000)
		(1.15642458 0.47267644 0.00000000)
		(1.17318436 0.46451877 0.00000000)
		(1.18994413 0.45646226 0.00000000)
		(1.20670391 0.44852989 0.00000000)
		(1.22346369 0.44074427 0.00000000)
		(1.24022346 0.43312760 0.00000000)
		(1.25698324 0.42570160 0.00000000)
		(1.27374302 0.41848744 0.00000000)
		(1.29050279 0.41150570 0.00000000)
		(1.30726257 0.40477627 0.00000000)
		(1.32402235 0.39831834 0.00000000)
		(1.34078212 0.39215034 0.00000000)
		(1.35754190 0.38628983 0.00000000)
		(1.37430168 0.38075354 0.00000000)
		(1.39106145 0.37555725 0.00000000)
		(1.40782123 0.37071578 0.00000000)
		(1.42458101 0.36624292 0.00000000)
		(1.44134078 0.36215143 0.00000000)
		(1.45810056 0.35845298 0.00000000)
		(1.47486034 0.35515811 0.00000000)
		(1.49162011 0.35227622 0.00000000)
		(1.50837989 0.34981553 0.00000000)
		(1.52513966 0.34778304 0.00000000)
		(1.54189944 0.34618456 0.00000000)
		(1.55865922 0.34502465 0.00000000)
		(1.57541899 0.34430660 0.00000000)
		(1.59217877 0.34403247 0.00000000)
		(1.60893855 0.34420303 0.00000000)
		(1.62569832 0.34481781 0.00000000)
		(1.64245810 0.34587505 0.00000000)
		(1.65921788 0.34737174 0.00000000)
		(1.67597765 0.34930360 0.00000000)
		(1.69273743 0.35166513 0.00000000)
		(1.70949721 0.35444960 0.00000000)
		(1.72625698 0.35764907 0.00000000)
		(1.74301676 0.36125441 0.00000000)
		(1.75977654 0.36525534 0.00000000)
		(1.77653631 0.36964047 0.00000000)
		(1.79329609 0.37439727 0.00000000)
		(1.81005587 0.37951220 0.00000000)
		(1.82681564 0.38497067 0.00000000)
		(1.84357542 0.39075711 0.00000000)
		(1.86033520 0.39685503 0.00000000)
		(1.87709497 0.40324704 0.00000000)
		(1.89385475 0.40991491 0.00000000)
		(1.91061453 0.41683964 0.00000000)
		(1.92737430 0.42400147 0.00000000)
		(1.94413408 0.43137999 0.00000000)
		(1.96089385 0.43895417 0.00000000)
		(1.97765363 0.44670240 0.00000000)
		(1.99441341 0.45460259 0.00000000)
		(2.01117318 0.46263222 0.00000000)
		(2.02793296 0.47076840 0.00000000)
		(2.04469274 0.47898792 0.00000000)
		(2.06145251 0.48726735 0.00000000)
		(2.07821229 0.49558309 0.00000000)
		(2.09497207 0.50391142 0.00000000)
		(2.11173184 0.51222860 0.00000000)
		(2.12849162 0.52051091 0.00000000)
		(2.14525140 0.52873474 0.00000000)
		(2.16201117 0.53687664 0.00000000)
		(2.17877095 0.54491339 0.00000000)
		(2.19553073 0.55282209 0.00000000)
		(2.21229050 0.56058018 0.00000000)
		(2.22905028 0.56816554 0.00000000)
		(2.24581006 0.57555655 0.00000000)
		(2.26256983 0.58273213 0.00000000)
		(2.27932961 0.58967182 0.00000000)
		(2.29608939 0.59635584 0.00000000)
		(2.31284916 0.60276512 0.00000000)
		(2.32960894 0.60888140 0.00000000)
		(2.34636872 0.61468723 0.00000000)
		(2.36312849 0.62016606 0.00000000)
		(2.37988827 0.62530227 0.00000000)
		(2.39664804 0.63008122 0.00000000)
		(2.41340782 0.63448927 0.00000000)
		(2.43016760 0.63851387 0.00000000)
		(2.44692737 0.64214353 0.00000000)
		(2.46368715 0.64536791 0.00000000)
		(2.48044693 0.64817781 0.00000000)
		(2.49720670 0.65056522 0.00000000)
		(2.51396648 0.65252334 0.00000000)
		(2.53072626 0.65404658 0.00000000)