/*--------------------------------*- C++ -*----------------------------------*\\
/*--------------------------------*- C++ -*----------------------------------*\\
| =========                 |                                                 |
| \\\\      /  F ield         | OpenFOAM: The Open Source CFD Toolbox           |
|  \\\\    /   O peration     | Version:  v2012                                 |
|   \\\\  /    A nd           | Website:  www.openfoam.com                      |
|    \\\\/     M anipulation  |                                                 |
\\*---------------------------------------------------------------------------*/
FoamFile
{
    version     2.0;
    format      ascii;
    class       dictionary;
    object      blockMeshDict;
}
// * * * * * * * * * * * * * * * * * * * * * * * * * * * * * * * * * * * * * //

scale   0.01;

xmin -1;
xmax 5;
ymin 0;
ymax 0.5;
zmin 0;
zmax 0.1;

vertices
(
    (-1.00000000 -0.10473719 0.00000000)
    (4.00000000 0.11282218 0.00000000)
    (4.00000000 0.61282218 0.00000000)
    (-1.00000000 0.39526281 0.00000000)
    (-1.00000000 -0.10473719 0.10000000)
    (4.00000000 0.11282218 0.10000000)
    (4.00000000 0.61282218 0.10000000)
    (-1.00000000 0.39526281 0.10000000)
);

blocks
(
    hex (0 1 2 3 4 5 6 7) (200 20 1) simpleGrading (1 1 1)
);

edges
(
	polyLine 0 1
	(
		(-1.00000000 -0.10473719 0.00000000)
		(-0.98000000 -0.10473719 0.00000000)
		(-0.96000000 -0.10473719 0.00000000)
		(-0.94000000 -0.10473719 0.00000000)
		(-0.92000000 -0.10473719 0.00000000)
		(-0.90000000 -0.10473719 0.00000000)
		(-0.88000000 -0.10473719 0.00000000)
		(-0.86000000 -0.10473719 0.00000000)
		(-0.84000000 -0.10473719 0.00000000)
		(-0.82000000 -0.10473719 0.00000000)
		(-0.80000000 -0.10473719 0.00000000)
		(-0.78000000 -0.10473719 0.00000000)
		(-0.76000000 -0.10473719 0.00000000)
		(-0.74000000 -0.10473719 0.00000000)
		(-0.72000000 -0.10473719 0.00000000)
		(-0.70000000 -0.10473719 0.00000000)
		(-0.68000000 -0.10473719 0.00000000)
		(-0.66000000 -0.10473719 0.00000000)
		(-0.64000000 -0.10473719 0.00000000)
		(-0.62000000 -0.10473719 0.00000000)
		(-0.60000000 -0.10473719 0.00000000)
		(-0.58000000 -0.10473719 0.00000000)
		(-0.56000000 -0.10473719 0.00000000)
		(-0.54000000 -0.10473719 0.00000000)
		(-0.52000000 -0.10473719 0.00000000)
		(-0.50000000 -0.10473719 0.00000000)
		(-0.48000000 -0.10473719 0.00000000)
		(-0.46000000 -0.10473719 0.00000000)
		(-0.44000000 -0.10473719 0.00000000)
		(-0.42000000 -0.10473719 0.00000000)
		(-0.40000000 -0.10473719 0.00000000)
		(-0.38000000 -0.10473719 0.00000000)
		(-0.36000000 -0.10473719 0.00000000)
		(-0.34000000 -0.10473719 0.00000000)
		(-0.32000000 -0.10473719 0.00000000)
		(-0.30000000 -0.10473719 0.00000000)
		(-0.28000000 -0.10473719 0.00000000)
		(-0.26000000 -0.10473719 0.00000000)
		(-0.24000000 -0.10473719 0.00000000)
		(-0.22000000 -0.10473719 0.00000000)
		(-0.20000000 -0.10473719 0.00000000)
		(-0.18000000 -0.10473719 0.00000000)
		(-0.16000000 -0.10473719 0.00000000)
		(-0.14000000 -0.10473719 0.00000000)
		(-0.12000000 -0.10473719 0.00000000)
		(-0.10000000 -0.10473719 0.00000000)
		(-0.08162011 -0.10411284 0.00000000)
		(-0.06324022 -0.10223981 0.00000000)
		(-0.04486034 -0.09911808 0.00000000)
		(-0.02648045 -0.09474767 0.00000000)
		(-0.00810056 -0.08912856 0.00000000)
		(0.01027933 -0.08226076 0.00000000)
		(0.02865922 -0.07414427 0.00000000)
		(0.04703911 -0.06477909 0.00000000)
		(0.06541899 -0.05416522 0.00000000)
		(0.08379888 -0.04230266 0.00000000)
		(0.10055866 -0.02932657 0.00000000)
		(0.11731844 -0.01626982 0.00000000)
		(0.13407821 -0.00316831 0.00000000)
		(0.15083799 0.00994191 0.00000000)
		(0.16759777 0.02302479 0.00000000)
		(0.18435754 0.03604433 0.00000000)
		(0.20111732 0.04896473 0.00000000)
		(0.21787709 0.06175045 0.00000000)
		(0.23463687 0.07436633 0.00000000)
		(0.25139665 0.08677765 0.00000000)
		(0.26815642 0.09895029 0.00000000)
		(0.28491620 0.11085077 0.00000000)
		(0.30167598 0.12244634 0.00000000)
		(0.31843575 0.13370511 0.00000000)
		(0.33519553 0.14459613 0.00000000)
		(0.35195531 0.15508942 0.00000000)
		(0.36871508 0.16515613 0.00000000)
		(0.38547486 0.17476858 0.00000000)
		(0.40223464 0.18390031 0.00000000)
		(0.41899441 0.19252621 0.00000000)
		(0.43575419 0.20062257 0.00000000)
		(0.45251397 0.20816710 0.00000000)
		(0.46927374 0.21513905 0.00000000)
		(0.48603352 0.22151925 0.00000000)
		(0.50279330 0.22729016 0.00000000)
		(0.51955307 0.23243589 0.00000000)
		(0.53631285 0.23694229 0.00000000)
		(0.55307263 0.24079698 0.00000000)
		(0.56983240 0.24398933 0.00000000)
		(0.58659218 0.24651059 0.00000000)
		(0.60335196 0.24835380 0.00000000)
		(0.62011173 0.24951390 0.00000000)
		(0.63687151 0.24998770 0.00000000)
		(0.65363128 0.24977390 0.00000000)
		(0.67039106 0.24887308 0.00000000)
		(0.68715084 0.24728773 0.00000000)
		(0.70391061 0.24502219 0.00000000)
		(0.72067039 0.24208271 0.00000000)
		(0.73743017 0.23847737 0.00000000)
		(0.75418994 0.23421609 0.00000000)
		(0.77094972 0.22931058 0.00000000)
		(0.78770950 0.22377434 0.00000000)
		(0.80446927 0.21762260 0.00000000)
		(0.82122905 0.21087227 0.00000000)
		(0.83798883 0.20354193 0.00000000)
		(0.85474860 0.19565174 0.00000000)
		(0.87150838 0.18722340 0.00000000)
		(0.88826816 0.17828009 0.00000000)
		(0.90502793 0.16884641 0.00000000)
		(0.92178771 0.15894832 0.00000000)
		(0.93854749 0.14861302 0.00000000)
		(0.95530726 0.13786896 0.00000000)
		(0.97206704 0.12674568 0.00000000)
		(0.98882682 0.11527379 0.00000000)
		(1.00558659 0.10348482 0.00000000)
		(1.02234637 0.09141122 0.00000000)
		(1.03910615 0.07908618 0.00000000)
		(1.05586592 0.06654361 0.00000000)
		(1.07262570 0.05381802 0.00000000)
		(1.08938547 0.04094439 0.00000000)
		(1.10614525 0.02795814 0.00000000)
		(1.12290503 0.01489499 0.00000000)
		(1.13966480 0.00179088 0.00000000)
		(1.15642458 -0.01131816 0.00000000)
		(1.17318436 -0.02439608 0.00000000)
		(1.18994413 -0.03740688 0.00000000)
		(1.20670391 -0.05031480 0.00000000)
		(1.22346369 -0.06308433 0.00000000)
		(1.24022346 -0.07568034 0.00000000)
		(1.25698324 -0.08806818 0.00000000)
		(1.27374302 -0.10021380 0.00000000)
		(1.29050279 -0.11208376 0.00000000)
		(1.30726257 -0.12364544 0.00000000)
		(1.32402235 -0.13486702 0.00000000)
		(1.34078212 -0.14571764 0.00000000)
		(1.35754190 -0.15616746 0.00000000)
		(1.37430168 -0.16618773 0.00000000)
		(1.39106145 -0.17575090 0.00000000)
		(1.40782123 -0.18483065 0.00000000)
		(1.42458101 -0.19340202 0.00000000)
		(1.44134078 -0.20144142 0.00000000)
		(1.45810056 -0.20892675 0.00000000)
		(1.47486034 -0.21583742 0.00000000)
		(1.49162011 -0.22215441 0.00000000)
		(1.50837989 -0.22786036 0.00000000)
		(1.52513966 -0.23293957 0.00000000)
		(1.54189944 -0.23737806 0.00000000)
		(1.55865922 -0.24116363 0.00000000)
		(1.57541899 -0.24428587 0.00000000)
		(1.59217877 -0.24673619 0.00000000)
		(1.60893855 -0.24850785 0.00000000)
		(1.62569832 -0.24959597 0.00000000)
		(1.64245810 -0.24999757 0.00000000)
		(1.65921788 -0.24971154 0.00000000)
		(1.67597765 -0.24873866 0.00000000)
		(1.69273743 -0.24708161 0.00000000)
		(1.70949721 -0.24474496 0.00000000)
		(1.72625698 -0.24173512 0.00000000)
		(1.74301676 -0.23806037 0.00000000)
		(1.75977654 -0.23373083 0.00000000)
		(1.77653631 -0.22875840 0.00000000)
		(1.79329609 -0.22315676 0.00000000)
		(1.81005587 -0.21694131 0.00000000)
		(1.82681564 -0.21012916 0.00000000)
		(1.84357542 -0.20273903 0.00000000)
		(1.86033520 -0.19479126 0.00000000)
		(1.87709497 -0.18630771 0.00000000)
		(1.89385475 -0.17731170 0.00000000)
		(1.91061453 -0.16782800 0.00000000)
		(1.92737430 -0.15788267 0.00000000)
		(1.94413408 -0.14750308 0.00000000)
		(1.96089385 -0.13671777 0.00000000)
		(1.97765363 -0.12555642 0.00000000)
		(1.99441341 -0.11404971 0.00000000)
		(2.01117318 -0.10222931 0.00000000)
		(2.02793296 -0.09012772 0.00000000)
		(2.04469274 -0.07777823 0.00000000)
		(2.06145251 -0.06521480 0.00000000)
		(2.07821229 -0.05247200 0.00000000)
		(2.09497207 -0.03958487 0.00000000)
		(2.11173184 -0.02658886 0.00000000)
		(2.12849162 -0.01351972 0.00000000)
		(2.14525140 -0.00041339 0.00000000)
		(2.16201117 0.01269408 0.00000000)
		(2.17877095 0.02576663 0.00000000)
		(2.19553073 0.03876830 0.00000000)
		(2.21229050 0.05166335 0.00000000)
		(2.22905028 0.06441629 0.00000000)
		(2.24581006 0.07699205 0.00000000)
		(2.26256983 0.08935604 0.00000000)
		(2.27932961 0.10147425 0.00000000)
		(2.29608939 0.11331336 0.00000000)
		(2.31284916 0.12484078 0.00000000)
		(2.32960894 0.13602483 0.00000000)
		(2.34636872 0.14683473 0.00000000)
		(2.36312849 0.15724076 0.00000000)
		(2.37988827 0.16721429 0.00000000)
		(2.39664804 0.17672789 0.00000000)
		(2.41340782 0.18575538 0.00000000)
		(2.43016760 0.19427195 0.00000000)
		(2.44692737 0.20225417 0.00000000)
		(2.46368715 0.20968007 0.00000000)
		(2.48044693 0.21652924 0.00000000)
		(2.49720670 0.22278283 0.00000000)
		(2.51396648 0.22842364 0.00000000)
		(2.53072626 0.23343617 0.00000000)
		(2.54748603 0.23780662 0.00000000)
		(2.56424581 0.24152296 0.00000000)
		(2.58100559 0.24457499 0.00000000)
		(2.59776536 0.24695430 0.00000000)
		(2.61452514 0.24865435 0.00000000)
		(2.63128492 0.24967047 0.00000000)
		(2.64804469 0.24999985 0.00000000)
		(2.66480447 0.24964159 0.00000000)
		(2.68156425 0.24859669 0.00000000)
		(2.69832402 0.24686800 0.00000000)
		(2.71508380 0.24446029 0.00000000)
		(2.73184358 0.24138018 0.00000000)
		(2.74860335 0.23763615 0.00000000)
		(2.76536313 0.23323848 0.00000000)
		(2.78212291 0.22819928 0.00000000)
		(2.79888268 0.22253240 0.00000000)
		(2.81564246 0.21625344 0.00000000)
		(2.83240223 0.20937966 0.00000000)
		(2.84916201 0.20192997 0.00000000)
		(2.86592179 0.19392486 0.00000000)
		(2.88268156 0.18538636 0.00000000)
		(2.89944134 0.17633793 0.00000000)
		(2.91620112 0.16680449 0.00000000)
		(2.93296089 0.15681223 0.00000000)
		(2.95166480 0.14845412 0.00000000)
		(2.97036872 0.14097581 0.00000000)
		(2.98907263 0.13437731 0.00000000)
		(3.00777654 0.12865860 0.00000000)
		(3.02648045 0.12381969 0.00000000)
		(3.04518436 0.11986059 0.00000000)
		(3.06388827 0.11678129 0.00000000)
		(3.08259218 0.11458178 0.00000000)
		(3.10129609 0.11326208 0.00000000)
		(3.12000000 0.11282218 0.00000000)
		(3.14000000 0.11282218 0.00000000)
		(3.16000000 0.11282218 0.00000000)
		(3.18000000 0.11282218 0.00000000)
		(3.20000000 0.11282218 0.00000000)
		(3.22000000 0.11282218 0.00000000)
		(3.24000000 0.11282218 0.00000000)
		(3.26000000 0.11282218 0.00000000)
		(3.28000000 0.11282218 0.00000000)
		(3.30000000 0.11282218 0.00000000)
		(3.32000000 0.11282218 0.00000000)
		(3.34000000 0.11282218 0.00000000)
		(3.36000000 0.11282218 0.00000000)
		(3.38000000 0.11282218 0.00000000)
		(3.40000000 0.11282218 0.00000000)
		(3.42000000 0.11282218 0.00000000)
		(3.44000000 0.11282218 0.00000000)
		(3.46000000 0.11282218 0.00000000)
		(3.48000000 0.11282218 0.00000000)
		(3.50000000 0.11282218 0.00000000)
		(3.52000000 0.11282218 0.00000000)
		(3.54000000 0.11282218 0.00000000)
		(3.56000000 0.11282218 0.00000000)
		(3.58000000 0.11282218 0.00000000)
		(3.60000000 0.11282218 0.00000000)
		(3.62000000 0.11282218 0.00000000)
		(3.64000000 0.11282218 0.00000000)
		(3.66000000 0.11282218 0.00000000)
		(3.68000000 0.11282218 0.00000000)
		(3.70000000 0.11282218 0.00000000)
		(3.72000000 0.11282218 0.00000000)
		(3.74000000 0.11282218 0.00000000)
		(3.76000000 0.11282218 0.00000000)
		(3.78000000 0.11282218 0.00000000)
		(3.80000000 0.11282218 0.00000000)
		(3.82000000 0.11282218 0.00000000)
		(3.84000000 0.11282218 0.00000000)
		(3.86000000 0.11282218 0.00000000)
		(3.88000000 0.11282218 0.00000000)
		(3.90000000 0.11282218 0.00000000)
		(3.92000000 0.11282218 0.00000000)
		(3.94000000 0.11282218 0.00000000)
		(3.96000000 0.11282218 0.00000000)
		(3.98000000 0.11282218 0.00000000)
		(4.00000000 0.11282218 0.00000000)
	)
	polyLine 4 5
	(
		(-1.00000000 -0.10473719 0.10000000)
		(-0.98000000 -0.10473719 0.10000000)
		(-0.96000000 -0.10473719 0.10000000)
		(-0.94000000 -0.10473719 0.10000000)
		(-0.92000000 -0.10473719 0.10000000)
		(-0.90000000 -0.10473719 0.10000000)
		(-0.88000000 -0.10473719 0.10000000)
		(-0.86000000 -0.10473719 0.10000000)
		(-0.84000000 -0.10473719 0.10000000)
		(-0.82000000 -0.10473719 0.10000000)
		(-0.80000000 -0.10473719 0.10000000)
		(-0.78000000 -0.10473719 0.10000000)
		(-0.76000000 -0.10473719 0.10000000)
		(-0.74000000 -0.10473719 0.10000000)
		(-0.72000000 -0.10473719 0.10000000)
		(-0.70000000 -0.10473719 0.10000000)
		(-0.68000000 -0.10473719 0.10000000)
		(-0.66000000 -0.10473719 0.10000000)
		(-0.64000000 -0.10473719 0.10000000)
		(-0.62000000 -0.10473719 0.10000000)
		(-0.60000000 -0.10473719 0.10000000)
		(-0.58000000 -0.10473719 0.10000000)
		(-0.56000000 -0.10473719 0.10000000)
		(-0.54000000 -0.10473719 0.10000000)
		(-0.52000000 -0.10473719 0.10000000)
		(-0.50000000 -0.10473719 0.10000000)
		(-0.48000000 -0.10473719 0.10000000)
		(-0.46000000 -0.10473719 0.10000000)
		(-0.44000000 -0.10473719 0.10000000)
		(-0.42000000 -0.10473719 0.10000000)
		(-0.40000000 -0.10473719 0.10000000)
		(-0.38000000 -0.10473719 0.10000000)
		(-0.36000000 -0.10473719 0.10000000)
		(-0.34000000 -0.10473719 0.10000000)
		(-0.32000000 -0.10473719 0.10000000)
		(-0.30000000 -0.10473719 0.10000000)
		(-0.28000000 -0.10473719 0.10000000)
		(-0.26000000 -0.10473719 0.10000000)
		(-0.24000000 -0.10473719 0.10000000)
		(-0.22000000 -0.10473719 0.10000000)
		(-0.20000000 -0.10473719 0.10000000)
		(-0.18000000 -0.10473719 0.10000000)
		(-0.16000000 -0.10473719 0.10000000)
		(-0.14000000 -0.10473719 0.10000000)
		(-0.12000000 -0.10473719 0.10000000)
		(-0.10000000 -0.10473719 0.10000000)
		(-0.08162011 -0.10411284 0.10000000)
		(-0.06324022 -0.10223981 0.10000000)
		(-0.04486034 -0.09911808 0.10000000)
		(-0.02648045 -0.09474767 0.10000000)
		(-0.00810056 -0.08912856 0.10000000)
		(0.01027933 -0.08226076 0.10000000)
		(0.02865922 -0.07414427 0.10000000)
		(0.04703911 -0.06477909 0.10000000)
		(0.06541899 -0.05416522 0.10000000)
		(0.08379888 -0.04230266 0.10000000)
		(0.10055866 -0.02932657 0.10000000)
		(0.11731844 -0.01626982 0.10000000)
		(0.13407821 -0.00316831 0.10000000)
		(0.15083799 0.00994191 0.10000000)
		(0.16759777 0.02302479 0.10000000)
		(0.18435754 0.03604433 0.10000000)
		(0.20111732 0.04896473 0.10000000)
		(0.21787709 0.06175045 0.10000000)
		(0.23463687 0.07436633 0.10000000)
		(0.25139665 0.08677765 0.10000000)
		(0.26815642 0.09895029 0.10000000)
		(0.28491620 0.11085077 0.10000000)
		(0.30167598 0.12244634 0.10000000)
		(0.31843575 0.13370511 0.10000000)
		(0.33519553 0.14459613 0.10000000)
		(0.35195531 0.15508942 0.10000000)
		(0.36871508 0.16515613 0.10000000)
		(0.38547486 0.17476858 0.10000000)
		(0.40223464 0.18390031 0.10000000)
		(0.41899441 0.19252621 0.10000000)
		(0.43575419 0.20062257 0.10000000)
		(0.45251397 0.20816710 0.10000000)
		(0.46927374 0.21513905 0.10000000)
		(0.48603352 0.22151925 0.10000000)
		(0.50279330 0.22729016 0.10000000)
		(0.51955307 0.23243589 0.10000000)
		(0.53631285 0.23694229 0.10000000)
		(0.55307263 0.24079698 0.10000000)
		(0.56983240 0.24398933 0.10000000)
		(0.58659218 0.24651059 0.10000000)
		(0.60335196 0.24835380 0.10000000)
		(0.62011173 0.24951390 0.10000000)
		(0.63687151 0.24998770 0.10000000)
		(0.65363128 0.24977390 0.10000000)
		(0.67039106 0.24887308 0.10000000)
		(0.68715084 0.24728773 0.10000000)
		(0.70391061 0.24502219 0.10000000)
		(0.72067039 0.24208271 0.10000000)
		(0.73743017 0.23847737 0.10000000)
		(0.75418994 0.23421609 0.10000000)
		(0.77094972 0.22931058 0.10000000)
		(0.78770950 0.22377434 0.10000000)
		(0.80446927 0.21762260 0.10000000)
		(0.82122905 0.21087227 0.10000000)
		(0.83798883 0.20354193 0.10000000)
		(0.85474860 0.19565174 0.10000000)
		(0.87150838 0.18722340 0.10000000)
		(0.88826816 0.17828009 0.10000000)
		(0.90502793 0.16884641 0.10000000)
		(0.92178771 0.15894832 0.10000000)
		(0.93854749 0.14861302 0.10000000)
		(0.95530726 0.13786896 0.10000000)
		(0.97206704 0.12674568 0.10000000)
		(0.98882682 0.11527379 0.10000000)
		(1.00558659 0.10348482 0.10000000)
		(1.02234637 0.09141122 0.10000000)
		(1.03910615 0.07908618 0.10000000)
		(1.05586592 0.06654361 0.10000000)
		(1.07262570 0.05381802 0.10000000)
		(1.08938547 0.04094439 0.10000000)
		(1.10614525 0.02795814 0.10000000)
		(1.12290503 0.01489499 0.10000000)
		(1.13966480 0.00179088 0.10000000)
		(1.15642458 -0.01131816 0.10000000)
		(1.17318436 -0.02439608 0.10000000)
		(1.18994413 -0.03740688 0.10000000)
		(1.20670391 -0.05031480 0.10000000)
		(1.22346369 -0.06308433 0.10000000)
		(1.24022346 -0.07568034 0.10000000)
		(1.25698324 -0.08806818 0.10000000)
		(1.27374302 -0.10021380 0.10000000)
		(1.29050279 -0.11208376 0.10000000)
		(1.30726257 -0.12364544 0.10000000)
		(1.32402235 -0.13486702 0.10000000)
		(1.34078212 -0.14571764 0.10000000)
		(1.35754190 -0.15616746 0.10000000)
		(1.37430168 -0.16618773 0.10000000)
		(1.39106145 -0.17575090 0.10000000)
		(1.40782123 -0.18483065 0.10000000)
		(1.42458101 -0.19340202 0.10000000)
		(1.44134078 -0.20144142 0.10000000)
		(1.45810056 -0.20892675 0.10000000)
		(1.47486034 -0.21583742 0.10000000)
		(1.49162011 -0.22215441 0.10000000)
		(1.50837989 -0.22786036 0.10000000)
		(1.52513966 -0.23293957 0.10000000)
		(1.54189944 -0.23737806 0.10000000)
		(1.55865922 -0.24116363 0.10000000)
		(1.57541899 -0.24428587 0.10000000)
		(1.59217877 -0.24673619 0.10000000)
		(1.60893855 -0.24850785 0.10000000)
		(1.62569832 -0.24959597 0.10000000)
		(1.64245810 -0.24999757 0.10000000)
		(1.65921788 -0.24971154 0.10000000)
		(1.67597765 -0.24873866 0.10000000)
		(1.69273743 -0.24708161 0.10000000)
		(1.70949721 -0.24474496 0.10000000)
		(1.72625698 -0.24173512 0.10000000)
		(1.74301676 -0.23806037 0.10000000)
		(1.75977654 -0.23373083 0.10000000)
		(1.77653631 -0.22875840 0.10000000)
		(1.79329609 -0.22315676 0.10000000)
		(1.81005587 -0.21694131 0.10000000)
		(1.82681564 -0.21012916 0.10000000)
		(1.84357542 -0.20273903 0.10000000)
		(1.86033520 -0.19479126 0.10000000)
		(1.87709497 -0.18630771 0.10000000)
		(1.89385475 -0.17731170 0.10000000)
		(1.91061453 -0.16782800 0.10000000)
		(1.92737430 -0.15788267 0.10000000)
		(1.94413408 -0.14750308 0.10000000)
		(1.96089385 -0.13671777 0.10000000)
		(1.97765363 -0.12555642 0.10000000)
		(1.99441341 -0.11404971 0.10000000)
		(2.01117318 -0.10222931 0.10000000)
		(2.02793296 -0.09012772 0.10000000)
		(2.04469274 -0.07777823 0.10000000)
		(2.06145251 -0.06521480 0.10000000)
		(2.07821229 -0.05247200 0.10000000)
		(2.09497207 -0.03958487 0.10000000)
		(2.11173184 -0.02658886 0.10000000)
		(2.12849162 -0.01351972 0.10000000)
		(2.14525140 -0.00041339 0.10000000)
		(2.16201117 0.01269408 0.10000000)
		(2.17877095 0.02576663 0.10000000)
		(2.19553073 0.03876830 0.10000000)
		(2.21229050 0.05166335 0.10000000)
		(2.22905028 0.06441629 0.10000000)
		(2.24581006 0.07699205 0.10000000)
		(2.26256983 0.08935604 0.10000000)
		(2.27932961 0.10147425 0.10000000)
		(2.29608939 0.11331336 0.10000000)
		(2.31284916 0.12484078 0.10000000)
		(2.32960894 0.13602483 0.10000000)
		(2.34636872 0.14683473 0.10000000)
		(2.36312849 0.15724076 0.10000000)
		(2.37988827 0.16721429 0.10000000)
		(2.39664804 0.17672789 0.10000000)
		(2.41340782 0.18575538 0.10000000)
		(2.43016760 0.19427195 0.10000000)
		(2.44692737 0.20225417 0.10000000)
		(2.46368715 0.20968007 0.10000000)
		(2.48044693 0.21652924 0.10000000)
		(2.49720670 0.22278283 0.10000000)
		(2.51396648 0.22842364 0.10000000)
		(2.53072626 0.23343617 0.10000000)
		(2.54748603 0.23780662 0.10000000)
		(2.56424581 0.24152296 0.10000000)
		(2.58100559 0.24457499 0.10000000)
		(2.59776536 0.24695430 0.10000000)
		(2.61452514 0.24865435 0.10000000)
		(2.63128492 0.24967047 0.10000000)
		(2.64804469 0.24999985 0.10000000)
		(2.66480447 0.24964159 0.10000000)
		(2.68156425 0.24859669 0.10000000)
		(2.69832402 0.24686800 0.10000000)
		(2.71508380 0.24446029 0.10000000)
		(2.73184358 0.24138018 0.10000000)
		(2.74860335 0.23763615 0.10000000)
		(2.76536313 0.23323848 0.10000000)
		(2.78212291 0.22819928 0.10000000)
		(2.79888268 0.22253240 0.10000000)
		(2.81564246 0.21625344 0.10000000)
		(2.83240223 0.20937966 0.10000000)
		(2.84916201 0.20192997 0.10000000)
		(2.86592179 0.19392486 0.10000000)
		(2.88268156 0.18538636 0.10000000)
		(2.89944134 0.17633793 0.10000000)
		(2.91620112 0.16680449 0.10000000)
		(2.93296089 0.15681223 0.10000000)
		(2.95166480 0.14845412 0.10000000)
		(2.97036872 0.14097581 0.10000000)
		(2.98907263 0.13437731 0.10000000)
		(3.00777654 0.12865860 0.10000000)
		(3.02648045 0.12381969 0.10000000)
		(3.04518436 0.11986059 0.10000000)
		(3.06388827 0.11678129 0.10000000)
		(3.08259218 0.11458178 0.10000000)
		(3.10129609 0.11326208 0.10000000)
		(3.12000000 0.11282218 0.10000000)
		(3.14000000 0.11282218 0.10000000)
		(3.16000000 0.11282218 0.10000000)
		(3.18000000 0.11282218 0.10000000)
		(3.20000000 0.11282218 0.10000000)
		(3.22000000 0.11282218 0.10000000)
		(3.24000000 0.11282218 0.10000000)
		(3.26000000 0.11282218 0.10000000)
		(3.28000000 0.11282218 0.10000000)
		(3.30000000 0.11282218 0.10000000)
		(3.32000000 0.11282218 0.10000000)
		(3.34000000 0.11282218 0.10000000)
		(3.36000000 0.11282218 0.10000000)
		(3.38000000 0.11282218 0.10000000)
		(3.40000000 0.11282218 0.10000000)
		(3.42000000 0.11282218 0.10000000)
		(3.44000000 0.11282218 0.10000000)
		(3.46000000 0.11282218 0.10000000)
		(3.48000000 0.11282218 0.10000000)
		(3.50000000 0.11282218 0.10000000)
		(3.52000000 0.11282218 0.10000000)
		(3.54000000 0.11282218 0.10000000)
		(3.56000000 0.11282218 0.10000000)
		(3.58000000 0.11282218 0.10000000)
		(3.60000000 0.11282218 0.10000000)
		(3.62000000 0.11282218 0.10000000)
		(3.64000000 0.11282218 0.10000000)
		(3.66000000 0.11282218 0.10000000)
		(3.68000000 0.11282218 0.10000000)
		(3.70000000 0.11282218 0.10000000)
		(3.72000000 0.11282218 0.10000000)
		(3.74000000 0.11282218 0.10000000)
		(3.76000000 0.11282218 0.10000000)
		(3.78000000 0.11282218 0.10000000)
		(3.80000000 0.11282218 0.10000000)
		(3.82000000 0.11282218 0.10000000)
		(3.84000000 0.11282218 0.10000000)
		(3.86000000 0.11282218 0.10000000)
		(3.88000000 0.11282218 0.10000000)
		(3.90000000 0.11282218 0.10000000)
		(3.92000000 0.11282218 0.10000000)
		(3.94000000 0.11282218 0.10000000)
		(3.96000000 0.11282218 0.10000000)
		(3.98000000 0.11282218 0.10000000)
		(4.00000000 0.11282218 0.10000000)
	)
	polyLine 3 2
	(
		(-1.00000000 0.39526281 0.00000000)
		(-0.98000000 0.39610392 0.00000000)
		(-0.96000000 0.39694503 0.00000000)
		(-0.94000000 0.39778613 0.00000000)
		(-0.92000000 0.39862724 0.00000000)
		(-0.90000000 0.39946835 0.00000000)
		(-0.88000000 0.40030946 0.00000000)
		(-0.86000000 0.40115057 0.00000000)
		(-0.84000000 0.40199167 0.00000000)
		(-0.82000000 0.40283278 0.00000000)
		(-0.80000000 0.40367389 0.00000000)
		(-0.78000000 0.40451500 0.00000000)
		(-0.76000000 0.40535611 0.00000000)
		(-0.74000000 0.40619722 0.00000000)
		(-0.72000000 0.40703832 0.00000000)
		(-0.70000000 0.40787943 0.00000000)
		(-0.68000000 0.40872054 0.00000000)
		(-0.66000000 0.40956165 0.00000000)
		(-0.64000000 0.41040276 0.00000000)
		(-0.62000000 0.41124386 0.00000000)
		(-0.60000000 0.41208497 0.00000000)
		(-0.58000000 0.41292608 0.00000000)
		(-0.56000000 0.41376719 0.00000000)
		(-0.54000000 0.41460830 0.00000000)
		(-0.52000000 0.41544940 0.00000000)
		(-0.50000000 0.41629051 0.00000000)
		(-0.48000000 0.41713162 0.00000000)
		(-0.46000000 0.41797273 0.00000000)
		(-0.44000000 0.41881384 0.00000000)
		(-0.42000000 0.41965494 0.00000000)
		(-0.40000000 0.42049605 0.00000000)
		(-0.38000000 0.42133716 0.00000000)
		(-0.36000000 0.42217827 0.00000000)
		(-0.34000000 0.42301938 0.00000000)
		(-0.32000000 0.42386048 0.00000000)
		(-0.30000000 0.42470159 0.00000000)
		(-0.28000000 0.42554270 0.00000000)
		(-0.26000000 0.42638381 0.00000000)
		(-0.24000000 0.42722492 0.00000000)
		(-0.22000000 0.42806603 0.00000000)
		(-0.20000000 0.42890713 0.00000000)
		(-0.18000000 0.42974824 0.00000000)
		(-0.16000000 0.43058935 0.00000000)
		(-0.14000000 0.43143046 0.00000000)
		(-0.12000000 0.43227157 0.00000000)
		(-0.10000000 0.43311267 0.00000000)
		(-0.08162011 0.43344696 0.00000000)
		(-0.06324022 0.43462321 0.00000000)
		(-0.04486034 0.43664140 0.00000000)
		(-0.02648045 0.43950156 0.00000000)
		(-0.00810056 0.44320367 0.00000000)
		(0.01027933 0.44774773 0.00000000)
		(0.02865922 0.45313374 0.00000000)
		(0.04703911 0.45936171 0.00000000)
		(0.06541899 0.46643164 0.00000000)
		(0.08379888 0.47434352 0.00000000)
		(0.10055866 0.48221349 0.00000000)
		(0.11731844 0.49013239 0.00000000)
		(0.13407821 0.49807843 0.00000000)
		(0.15083799 0.50602975 0.00000000)
		(0.16759777 0.51396449 0.00000000)
		(0.18435754 0.52186081 0.00000000)
		(0.20111732 0.52969701 0.00000000)
		(0.21787709 0.53745153 0.00000000)
		(0.23463687 0.54510303 0.00000000)
		(0.25139665 0.55263047 0.00000000)
		(0.26815642 0.56001315 0.00000000)
		(0.28491620 0.56723077 0.00000000)
		(0.30167598 0.57426346 0.00000000)
		(0.31843575 0.58109188 0.00000000)
		(0.33519553 0.58769726 0.00000000)
		(0.35195531 0.59406142 0.00000000)
		(0.36871508 0.60016686 0.00000000)
		(0.38547486 0.60599679 0.00000000)
		(0.40223464 0.61153517 0.00000000)
		(0.41899441 0.61676676 0.00000000)
		(0.43575419 0.62167718 0.00000000)
		(0.45251397 0.62625292 0.00000000)
		(0.46927374 0.63048140 0.00000000)
		(0.48603352 0.63435098 0.00000000)
		(0.50279330 0.63785102 0.00000000)
		(0.51955307 0.64097190 0.00000000)
		(0.53631285 0.64370502 0.00000000)
		(0.55307263 0.64604288 0.00000000)
		(0.56983240 0.64797904 0.00000000)
		(0.58659218 0.64950817 0.00000000)
		(0.60335196 0.65062608 0.00000000)
		(0.62011173 0.65132968 0.00000000)
		(0.63687151 0.65161704 0.00000000)
		(0.65363128 0.65148737 0.00000000)
		(0.67039106 0.65094102 0.00000000)
		(0.68715084 0.64997951 0.00000000)
		(0.70391061 0.64860546 0.00000000)
		(0.72067039 0.64682268 0.00000000)
		(0.73743017 0.64463604 0.00000000)
		(0.75418994 0.64205158 0.00000000)
		(0.77094972 0.63907640 0.00000000)
		(0.78770950 0.63571868 0.00000000)
		(0.80446927 0.63198767 0.00000000)
		(0.82122905 0.62789361 0.00000000)
		(0.83798883 0.62344777 0.00000000)
		(0.85474860 0.61866239 0.00000000)
		(0.87150838 0.61355061 0.00000000)
		(0.88826816 0.60812652 0.00000000)
		(0.90502793 0.60240501 0.00000000)
		(0.92178771 0.59640183 0.00000000)
		(0.93854749 0.59013350 0.00000000)
		(0.95530726 0.58361725 0.00000000)
		(0.97206704 0.57687100 0.00000000)
		(0.98882682 0.56991332 0.00000000)
		(1.00558659 0.56276333 0.00000000)
		(1.02234637 0.55544072 0.00000000)
		(1.03910615 0.54796561 0.00000000)
		(1.05586592 0.54035857 0.00000000)
		(1.07262570 0.53264052 0.00000000)
		(1.08938547 0.52483269 0.00000000)
		(1.10614525 0.51695656 0.00000000)
		(1.12290503 0.50903378 0.00000000)
		(1.13966480 0.50108616 0.00000000)
		(1.15642458 0.49313556 0.00000000)
		(1.17318436 0.48520383 0.00000000)
		(1.18994413 0.47731280 0.00000000)
		(1.20670391 0.46948417 0.00000000)
		(1.22346369 0.46173948 0.00000000)
		(1.24022346 0.45410003 0.00000000)
		(1.25698324 0.44658682 0.00000000)
		(1.27374302 0.43922054 0.00000000)
		(1.29050279 0.43202142 0.00000000)
		(1.30726257 0.42500929 0.00000000)
		(1.32402235 0.41820343 0.00000000)
		(1.34078212 0.41162254 0.00000000)
		(1.35754190 0.40528475 0.00000000)
		(1.37430168 0.39920747 0.00000000)
		(1.39106145 0.39340743 0.00000000)
		(1.40782123 0.38790058 0.00000000)
		(1.42458101 0.38270207 0.00000000)
		(1.44134078 0.37782618 0.00000000)
		(1.45810056 0.37328635 0.00000000)
		(1.47486034 0.36909504 0.00000000)
		(1.49162011 0.36526380 0.00000000)
		(1.50837989 0.36180315 0.00000000)
		(1.52513966 0.35872262 0.00000000)
		(1.54189944 0.35603069 0.00000000)
		(1.55865922 0.35373475 0.00000000)
		(1.57541899 0.35184111 0.00000000)
		(1.59217877 0.35035500 0.00000000)
		(1.60893855 0.34928049 0.00000000)
		(1.62569832 0.34862055 0.00000000)
		(1.64245810 0.34837698 0.00000000)
		(1.65921788 0.34855046 0.00000000)
		(1.67597765 0.34914051 0.00000000)
		(1.69273743 0.35014550 0.00000000)
		(1.70949721 0.35156268 0.00000000)
		(1.72625698 0.35338814 0.00000000)
		(1.74301676 0.35561686 0.00000000)
		(1.75977654 0.35824272 0.00000000)
		(1.77653631 0.36125849 0.00000000)
		(1.79329609 0.36465588 0.00000000)
		(1.81005587 0.36842553 0.00000000)
		(1.82681564 0.37255709 0.00000000)
		(1.84357542 0.37703919 0.00000000)
		(1.86033520 0.38185949 0.00000000)
		(1.87709497 0.38700475 0.00000000)
		(1.89385475 0.39246081 0.00000000)
		(1.91061453 0.39821266 0.00000000)
		(1.92737430 0.40424448 0.00000000)
		(1.94413408 0.41053968 0.00000000)
		(1.96089385 0.41708095 0.00000000)
		(1.97765363 0.42385029 0.00000000)
		(1.99441341 0.43082908 0.00000000)
		(2.01117318 0.43799813 0.00000000)
		(2.02793296 0.44533772 0.00000000)
		(2.04469274 0.45282766 0.00000000)
		(2.06145251 0.46044735 0.00000000)
		(2.07821229 0.46817584 0.00000000)
		(2.09497207 0.47599185 0.00000000)
		(2.11173184 0.48387391 0.00000000)
		(2.12849162 0.49180032 0.00000000)
		(2.14525140 0.49974928 0.00000000)
		(2.16201117 0.50769893 0.00000000)
		(2.17877095 0.51562741 0.00000000)
		(2.19553073 0.52351290 0.00000000)
		(2.21229050 0.53133372 0.00000000)
		(2.22905028 0.53906835 0.00000000)
		(2.24581006 0.54669552 0.00000000)
		(2.26256983 0.55419426 0.00000000)
		(2.27932961 0.56154393 0.00000000)
		(2.29608939 0.56872432 0.00000000)
		(2.31284916 0.57571568 0.00000000)
		(2.32960894 0.58249878 0.00000000)
		(2.34636872 0.58905497 0.00000000)
		(2.36312849 0.59536620 0.00000000)
		(2.37988827 0.60141513 0.00000000)
		(2.39664804 0.60718511 0.00000000)
		(2.41340782 0.61266027 0.00000000)
		(2.43016760 0.61782555 0.00000000)
		(2.44692737 0.62266674 0.00000000)
		(2.46368715 0.62717054 0.00000000)
		(2.48044693 0.63132454 0.00000000)
		(2.49720670 0.63511733 0.00000000)
		(2.51396648 0.63853848 0.00000000)
		(2.53072626 0.64157856 0.00000000)