/*--------------------------------*- C++ -*----------------------------------*\\
/*--------------------------------*- C++ -*----------------------------------*\\
| =========                 |                                                 |
| \\\\      /  F ield         | OpenFOAM: The Open Source CFD Toolbox           |
|  \\\\    /   O peration     | Version:  v2012                                 |
|   \\\\  /    A nd           | Website:  www.openfoam.com                      |
|    \\\\/     M anipulation  |                                                 |
\\*---------------------------------------------------------------------------*/
FoamFile
{
    version     2.0;
    format      ascii;
    class       dictionary;
    object      blockMeshDict;
}
// * * * * * * * * * * * * * * * * * * * * * * * * * * * * * * * * * * * * * //

scale   0.01;

xmin -1;
xmax 5;
ymin 0;
ymax 0.5;
zmin 0;
zmax 0.1;

vertices
(
    (-1.00000000 -0.17581751 0.00000000)
    (4.00000000 0.00150725 0.00000000)
    (4.00000000 0.50150725 0.00000000)
    (-1.00000000 0.32418249 0.00000000)
    (-1.00000000 -0.17581751 0.10000000)
    (4.00000000 0.00150725 0.10000000)
    (4.00000000 0.50150725 0.10000000)
    (-1.00000000 0.32418249 0.10000000)
);

blocks
(
    hex (0 1 2 3 4 5 6 7) (200 20 1) simpleGrading (1 1 1)
);

edges
(
	polyLine 0 1
	(
		(-1.00000000 -0.17581751 0.00000000)
		(-0.98000000 -0.17581751 0.00000000)
		(-0.96000000 -0.17581751 0.00000000)
		(-0.94000000 -0.17581751 0.00000000)
		(-0.92000000 -0.17581751 0.00000000)
		(-0.90000000 -0.17581751 0.00000000)
		(-0.88000000 -0.17581751 0.00000000)
		(-0.86000000 -0.17581751 0.00000000)
		(-0.84000000 -0.17581751 0.00000000)
		(-0.82000000 -0.17581751 0.00000000)
		(-0.80000000 -0.17581751 0.00000000)
		(-0.78000000 -0.17581751 0.00000000)
		(-0.76000000 -0.17581751 0.00000000)
		(-0.74000000 -0.17581751 0.00000000)
		(-0.72000000 -0.17581751 0.00000000)
		(-0.70000000 -0.17581751 0.00000000)
		(-0.68000000 -0.17581751 0.00000000)
		(-0.66000000 -0.17581751 0.00000000)
		(-0.64000000 -0.17581751 0.00000000)
		(-0.62000000 -0.17581751 0.00000000)
		(-0.60000000 -0.17581751 0.00000000)
		(-0.58000000 -0.17581751 0.00000000)
		(-0.56000000 -0.17581751 0.00000000)
		(-0.54000000 -0.17581751 0.00000000)
		(-0.52000000 -0.17581751 0.00000000)
		(-0.50000000 -0.17581751 0.00000000)
		(-0.48000000 -0.17581751 0.00000000)
		(-0.46000000 -0.17581751 0.00000000)
		(-0.44000000 -0.17581751 0.00000000)
		(-0.42000000 -0.17581751 0.00000000)
		(-0.40000000 -0.17581751 0.00000000)
		(-0.38000000 -0.17581751 0.00000000)
		(-0.36000000 -0.17581751 0.00000000)
		(-0.34000000 -0.17581751 0.00000000)
		(-0.32000000 -0.17581751 0.00000000)
		(-0.30000000 -0.17581751 0.00000000)
		(-0.28000000 -0.17581751 0.00000000)
		(-0.26000000 -0.17581751 0.00000000)
		(-0.24000000 -0.17581751 0.00000000)
		(-0.22000000 -0.17581751 0.00000000)
		(-0.20000000 -0.17581751 0.00000000)
		(-0.18000000 -0.17581751 0.00000000)
		(-0.16000000 -0.17581751 0.00000000)
		(-0.14000000 -0.17581751 0.00000000)
		(-0.12000000 -0.17581751 0.00000000)
		(-0.10000000 -0.17581751 0.00000000)
		(-0.08162011 -0.17524714 0.00000000)
		(-0.06324022 -0.17353605 0.00000000)
		(-0.04486034 -0.17068424 0.00000000)
		(-0.02648045 -0.16669170 0.00000000)
		(-0.00810056 -0.16155843 0.00000000)
		(0.01027933 -0.15528444 0.00000000)
		(0.02865922 -0.14786972 0.00000000)
		(0.04703911 -0.13931428 0.00000000)
		(0.06541899 -0.12961811 0.00000000)
		(0.08379888 -0.11878121 0.00000000)
		(0.10055866 -0.10606165 0.00000000)
		(0.11731844 -0.09299787 0.00000000)
		(0.13407821 -0.07963228 0.00000000)
		(0.15083799 -0.06600825 0.00000000)
		(0.16759777 -0.05216999 0.00000000)
		(0.18435754 -0.03816242 0.00000000)
		(0.20111732 -0.02403100 0.00000000)
		(0.21787709 -0.00982159 0.00000000)
		(0.23463687 0.00441969 0.00000000)
		(0.25139665 0.01864664 0.00000000)
		(0.26815642 0.03281306 0.00000000)
		(0.28491620 0.04687300 0.00000000)
		(0.30167598 0.06078081 0.00000000)
		(0.31843575 0.07449136 0.00000000)
		(0.33519553 0.08796016 0.00000000)
		(0.35195531 0.10114350 0.00000000)
		(0.36871508 0.11399858 0.00000000)
		(0.38547486 0.12648369 0.00000000)
		(0.40223464 0.13855830 0.00000000)
		(0.41899441 0.15018324 0.00000000)
		(0.43575419 0.16132078 0.00000000)
		(0.45251397 0.17193476 0.00000000)
		(0.46927374 0.18199075 0.00000000)
		(0.48603352 0.19145610 0.00000000)
		(0.50279330 0.20030010 0.00000000)
		(0.51955307 0.20849404 0.00000000)
		(0.53631285 0.21601133 0.00000000)
		(0.55307263 0.22282758 0.00000000)
		(0.56983240 0.22892067 0.00000000)
		(0.58659218 0.23427081 0.00000000)
		(0.60335196 0.23886065 0.00000000)
		(0.62011173 0.24267529 0.00000000)
		(0.63687151 0.24570235 0.00000000)
		(0.65363128 0.24793200 0.00000000)
		(0.67039106 0.24935702 0.00000000)
		(0.68715084 0.24997277 0.00000000)
		(0.70391061 0.24977726 0.00000000)
		(0.72067039 0.24877111 0.00000000)
		(0.73743017 0.24695761 0.00000000)
		(0.75418994 0.24434263 0.00000000)
		(0.77094972 0.24093465 0.00000000)
		(0.78770950 0.23674475 0.00000000)
		(0.80446927 0.23178651 0.00000000)
		(0.82122905 0.22607603 0.00000000)
		(0.83798883 0.21963184 0.00000000)
		(0.85474860 0.21247486 0.00000000)
		(0.87150838 0.20462831 0.00000000)
		(0.88826816 0.19611765 0.00000000)
		(0.90502793 0.18697052 0.00000000)
		(0.92178771 0.17721659 0.00000000)
		(0.93854749 0.16688752 0.00000000)
		(0.95530726 0.15601684 0.00000000)
		(0.97206704 0.14463981 0.00000000)
		(0.98882682 0.13279337 0.00000000)
		(1.00558659 0.12051596 0.00000000)
		(1.02234637 0.10784743 0.00000000)
		(1.03910615 0.09482889 0.00000000)
		(1.05586592 0.08150259 0.00000000)
		(1.07262570 0.06791178 0.00000000)
		(1.08938547 0.05410057 0.00000000)
		(1.10614525 0.04011379 0.00000000)
		(1.12290503 0.02599681 0.00000000)
		(1.13966480 0.01179547 0.00000000)
		(1.15642458 -0.00244416 0.00000000)
		(1.17318436 -0.01667585 0.00000000)
		(1.18994413 -0.03085342 0.00000000)
		(1.20670391 -0.04493086 0.00000000)
		(1.22346369 -0.05886248 0.00000000)
		(1.24022346 -0.07260307 0.00000000)
		(1.25698324 -0.08610803 0.00000000)
		(1.27374302 -0.09933354 0.00000000)
		(1.29050279 -0.11223667 0.00000000)
		(1.30726257 -0.12477555 0.00000000)
		(1.32402235 -0.13690947 0.00000000)
		(1.34078212 -0.14859907 0.00000000)
		(1.35754190 -0.15980641 0.00000000)
		(1.37430168 -0.17049511 0.00000000)
		(1.39106145 -0.18063049 0.00000000)
		(1.40782123 -0.19017964 0.00000000)
		(1.42458101 -0.19911158 0.00000000)
		(1.44134078 -0.20739733 0.00000000)
		(1.45810056 -0.21500999 0.00000000)
		(1.47486034 -0.22192485 0.00000000)
		(1.49162011 -0.22811948 0.00000000)
		(1.50837989 -0.23357376 0.00000000)
		(1.52513966 -0.23827001 0.00000000)
		(1.54189944 -0.24219297 0.00000000)
		(1.55865922 -0.24532991 0.00000000)
		(1.57541899 -0.24767066 0.00000000)
		(1.59217877 -0.24920762 0.00000000)
		(1.60893855 -0.24993580 0.00000000)
		(1.62569832 -0.24985284 0.00000000)
		(1.64245810 -0.24895900 0.00000000)
		(1.65921788 -0.24725719 0.00000000)
		(1.67597765 -0.24475293 0.00000000)
		(1.69273743 -0.24145434 0.00000000)
		(1.70949721 -0.23737214 0.00000000)
		(1.72625698 -0.23251957 0.00000000)
		(1.74301676 -0.22691238 0.00000000)
		(1.75977654 -0.22056876 0.00000000)
		(1.77653631 -0.21350931 0.00000000)
		(1.79329609 -0.20575694 0.00000000)
		(1.81005587 -0.19733680 0.00000000)
		(1.82681564 -0.18827622 0.00000000)
		(1.84357542 -0.17860461 0.00000000)
		(1.86033520 -0.16835335 0.00000000)
		(1.87709497 -0.15755572 0.00000000)
		(1.89385475 -0.14624676 0.00000000)
		(1.91061453 -0.13446317 0.00000000)
		(1.92737430 -0.12224319 0.00000000)
		(1.94413408 -0.10962648 0.00000000)
		(1.96089385 -0.09665399 0.00000000)
		(1.97765363 -0.08336781 0.00000000)
		(1.99441341 -0.06981108 0.00000000)
		(2.01117318 -0.05602778 0.00000000)
		(2.02793296 -0.04206264 0.00000000)
		(2.04469274 -0.02796100 0.00000000)
		(2.06145251 -0.01376861 0.00000000)
		(2.07821229 0.00046847 0.00000000)
		(2.09497207 0.01470402 0.00000000)
		(2.11173184 0.02889185 0.00000000)
		(2.12849162 0.04298592 0.00000000)
		(2.14525140 0.05694048 0.00000000)
		(2.16201117 0.07071025 0.00000000)
		(2.17877095 0.08425053 0.00000000)
		(2.19553073 0.09751738 0.00000000)
		(2.21229050 0.11046775 0.00000000)
		(2.22905028 0.12305961 0.00000000)
		(2.24581006 0.13525209 0.00000000)
		(2.26256983 0.14700562 0.00000000)
		(2.27932961 0.15828206 0.00000000)
		(2.29608939 0.16904481 0.00000000)
		(2.31284916 0.17925894 0.00000000)
		(2.32960894 0.18889130 0.00000000)
		(2.34636872 0.19791064 0.00000000)
		(2.36312849 0.20628767 0.00000000)
		(2.37988827 0.21399521 0.00000000)
		(2.39664804 0.22100826 0.00000000)
		(2.41340782 0.22730404 0.00000000)
		(2.43016760 0.23286213 0.00000000)
		(2.44692737 0.23766448 0.00000000)
		(2.46368715 0.24169552 0.00000000)
		(2.48044693 0.24494216 0.00000000)
		(2.49720670 0.24739386 0.00000000)
		(2.51396648 0.24904266 0.00000000)
		(2.53072626 0.24988323 0.00000000)
		(2.54748603 0.24991282 0.00000000)
		(2.56424581 0.24913134 0.00000000)
		(2.58100559 0.24754132 0.00000000)
		(2.59776536 0.24514794 0.00000000)
		(2.61452514 0.24195895 0.00000000)
		(2.63128492 0.23798471 0.00000000)
		(2.64804469 0.23323811 0.00000000)
		(2.66480447 0.22773455 0.00000000)
		(2.68156425 0.22149191 0.00000000)
		(2.69832402 0.21453043 0.00000000)
		(2.71508380 0.20687272 0.00000000)
		(2.73184358 0.19854362 0.00000000)
		(2.74860335 0.18957016 0.00000000)
		(2.76536313 0.17998147 0.00000000)
		(2.78212291 0.16980867 0.00000000)
		(2.79888268 0.15908477 0.00000000)
		(2.81564246 0.14784458 0.00000000)
		(2.83240223 0.13612457 0.00000000)
		(2.84916201 0.12396278 0.00000000)
		(2.86592179 0.11139868 0.00000000)
		(2.88268156 0.09847305 0.00000000)
		(2.89944134 0.08522783 0.00000000)
		(2.91620112 0.07170601 0.00000000)
		(2.93296089 0.05795148 0.00000000)
		(2.95166480 0.04722708 0.00000000)
		(2.97036872 0.03763156 0.00000000)
		(2.98907263 0.02916492 0.00000000)
		(3.00777654 0.02182717 0.00000000)
		(3.02648045 0.01561831 0.00000000)
		(3.04518436 0.01053833 0.00000000)
		(3.06388827 0.00658723 0.00000000)
		(3.08259218 0.00376502 0.00000000)
		(3.10129609 0.00207170 0.00000000)
		(3.12000000 0.00150725 0.00000000)
		(3.14000000 0.00150725 0.00000000)
		(3.16000000 0.00150725 0.00000000)
		(3.18000000 0.00150725 0.00000000)
		(3.20000000 0.00150725 0.00000000)
		(3.22000000 0.00150725 0.00000000)
		(3.24000000 0.00150725 0.00000000)
		(3.26000000 0.00150725 0.00000000)
		(3.28000000 0.00150725 0.00000000)
		(3.30000000 0.00150725 0.00000000)
		(3.32000000 0.00150725 0.00000000)
		(3.34000000 0.00150725 0.00000000)
		(3.36000000 0.00150725 0.00000000)
		(3.38000000 0.00150725 0.00000000)
		(3.40000000 0.00150725 0.00000000)
		(3.42000000 0.00150725 0.00000000)
		(3.44000000 0.00150725 0.00000000)
		(3.46000000 0.00150725 0.00000000)
		(3.48000000 0.00150725 0.00000000)
		(3.50000000 0.00150725 0.00000000)
		(3.52000000 0.00150725 0.00000000)
		(3.54000000 0.00150725 0.00000000)
		(3.56000000 0.00150725 0.00000000)
		(3.58000000 0.00150725 0.00000000)
		(3.60000000 0.00150725 0.00000000)
		(3.62000000 0.00150725 0.00000000)
		(3.64000000 0.00150725 0.00000000)
		(3.66000000 0.00150725 0.00000000)
		(3.68000000 0.00150725 0.00000000)
		(3.70000000 0.00150725 0.00000000)
		(3.72000000 0.00150725 0.00000000)
		(3.74000000 0.00150725 0.00000000)
		(3.76000000 0.00150725 0.00000000)
		(3.78000000 0.00150725 0.00000000)
		(3.80000000 0.00150725 0.00000000)
		(3.82000000 0.00150725 0.00000000)
		(3.84000000 0.00150725 0.00000000)
		(3.86000000 0.00150725 0.00000000)
		(3.88000000 0.00150725 0.00000000)
		(3.90000000 0.00150725 0.00000000)
		(3.92000000 0.00150725 0.00000000)
		(3.94000000 0.00150725 0.00000000)
		(3.96000000 0.00150725 0.00000000)
		(3.98000000 0.00150725 0.00000000)
		(4.00000000 0.00150725 0.00000000)
	)
	polyLine 4 5
	(
		(-1.00000000 -0.17581751 0.10000000)
		(-0.98000000 -0.17581751 0.10000000)
		(-0.96000000 -0.17581751 0.10000000)
		(-0.94000000 -0.17581751 0.10000000)
		(-0.92000000 -0.17581751 0.10000000)
		(-0.90000000 -0.17581751 0.10000000)
		(-0.88000000 -0.17581751 0.10000000)
		(-0.86000000 -0.17581751 0.10000000)
		(-0.84000000 -0.17581751 0.10000000)
		(-0.82000000 -0.17581751 0.10000000)
		(-0.80000000 -0.17581751 0.10000000)
		(-0.78000000 -0.17581751 0.10000000)
		(-0.76000000 -0.17581751 0.10000000)
		(-0.74000000 -0.17581751 0.10000000)
		(-0.72000000 -0.17581751 0.10000000)
		(-0.70000000 -0.17581751 0.10000000)
		(-0.68000000 -0.17581751 0.10000000)
		(-0.66000000 -0.17581751 0.10000000)
		(-0.64000000 -0.17581751 0.10000000)
		(-0.62000000 -0.17581751 0.10000000)
		(-0.60000000 -0.17581751 0.10000000)
		(-0.58000000 -0.17581751 0.10000000)
		(-0.56000000 -0.17581751 0.10000000)
		(-0.54000000 -0.17581751 0.10000000)
		(-0.52000000 -0.17581751 0.10000000)
		(-0.50000000 -0.17581751 0.10000000)
		(-0.48000000 -0.17581751 0.10000000)
		(-0.46000000 -0.17581751 0.10000000)
		(-0.44000000 -0.17581751 0.10000000)
		(-0.42000000 -0.17581751 0.10000000)
		(-0.40000000 -0.17581751 0.10000000)
		(-0.38000000 -0.17581751 0.10000000)
		(-0.36000000 -0.17581751 0.10000000)
		(-0.34000000 -0.17581751 0.10000000)
		(-0.32000000 -0.17581751 0.10000000)
		(-0.30000000 -0.17581751 0.10000000)
		(-0.28000000 -0.17581751 0.10000000)
		(-0.26000000 -0.17581751 0.10000000)
		(-0.24000000 -0.17581751 0.10000000)
		(-0.22000000 -0.17581751 0.10000000)
		(-0.20000000 -0.17581751 0.10000000)
		(-0.18000000 -0.17581751 0.10000000)
		(-0.16000000 -0.17581751 0.10000000)
		(-0.14000000 -0.17581751 0.10000000)
		(-0.12000000 -0.17581751 0.10000000)
		(-0.10000000 -0.17581751 0.10000000)
		(-0.08162011 -0.17524714 0.10000000)
		(-0.06324022 -0.17353605 0.10000000)
		(-0.04486034 -0.17068424 0.10000000)
		(-0.02648045 -0.16669170 0.10000000)
		(-0.00810056 -0.16155843 0.10000000)
		(0.01027933 -0.15528444 0.10000000)
		(0.02865922 -0.14786972 0.10000000)
		(0.04703911 -0.13931428 0.10000000)
		(0.06541899 -0.12961811 0.10000000)
		(0.08379888 -0.11878121 0.10000000)
		(0.10055866 -0.10606165 0.10000000)
		(0.11731844 -0.09299787 0.10000000)
		(0.13407821 -0.07963228 0.10000000)
		(0.15083799 -0.06600825 0.10000000)
		(0.16759777 -0.05216999 0.10000000)
		(0.18435754 -0.03816242 0.10000000)
		(0.20111732 -0.02403100 0.10000000)
		(0.21787709 -0.00982159 0.10000000)
		(0.23463687 0.00441969 0.10000000)
		(0.25139665 0.01864664 0.10000000)
		(0.26815642 0.03281306 0.10000000)
		(0.28491620 0.04687300 0.10000000)
		(0.30167598 0.06078081 0.10000000)
		(0.31843575 0.07449136 0.10000000)
		(0.33519553 0.08796016 0.10000000)
		(0.35195531 0.10114350 0.10000000)
		(0.36871508 0.11399858 0.10000000)
		(0.38547486 0.12648369 0.10000000)
		(0.40223464 0.13855830 0.10000000)
		(0.41899441 0.15018324 0.10000000)
		(0.43575419 0.16132078 0.10000000)
		(0.45251397 0.17193476 0.10000000)
		(0.46927374 0.18199075 0.10000000)
		(0.48603352 0.19145610 0.10000000)
		(0.50279330 0.20030010 0.10000000)
		(0.51955307 0.20849404 0.10000000)
		(0.53631285 0.21601133 0.10000000)
		(0.55307263 0.22282758 0.10000000)
		(0.56983240 0.22892067 0.10000000)
		(0.58659218 0.23427081 0.10000000)
		(0.60335196 0.23886065 0.10000000)
		(0.62011173 0.24267529 0.10000000)
		(0.63687151 0.24570235 0.10000000)
		(0.65363128 0.24793200 0.10000000)
		(0.67039106 0.24935702 0.10000000)
		(0.68715084 0.24997277 0.10000000)
		(0.70391061 0.24977726 0.10000000)
		(0.72067039 0.24877111 0.10000000)
		(0.73743017 0.24695761 0.10000000)
		(0.75418994 0.24434263 0.10000000)
		(0.77094972 0.24093465 0.10000000)
		(0.78770950 0.23674475 0.10000000)
		(0.80446927 0.23178651 0.10000000)
		(0.82122905 0.22607603 0.10000000)
		(0.83798883 0.21963184 0.10000000)
		(0.85474860 0.21247486 0.10000000)
		(0.87150838 0.20462831 0.10000000)
		(0.88826816 0.19611765 0.10000000)
		(0.90502793 0.18697052 0.10000000)
		(0.92178771 0.17721659 0.10000000)
		(0.93854749 0.16688752 0.10000000)
		(0.95530726 0.15601684 0.10000000)
		(0.97206704 0.14463981 0.10000000)
		(0.98882682 0.13279337 0.10000000)
		(1.00558659 0.12051596 0.10000000)
		(1.02234637 0.10784743 0.10000000)
		(1.03910615 0.09482889 0.10000000)
		(1.05586592 0.08150259 0.10000000)
		(1.07262570 0.06791178 0.10000000)
		(1.08938547 0.05410057 0.10000000)
		(1.10614525 0.04011379 0.10000000)
		(1.12290503 0.02599681 0.10000000)
		(1.13966480 0.01179547 0.10000000)
		(1.15642458 -0.00244416 0.10000000)
		(1.17318436 -0.01667585 0.10000000)
		(1.18994413 -0.03085342 0.10000000)
		(1.20670391 -0.04493086 0.10000000)
		(1.22346369 -0.05886248 0.10000000)
		(1.24022346 -0.07260307 0.10000000)
		(1.25698324 -0.08610803 0.10000000)
		(1.27374302 -0.09933354 0.10000000)
		(1.29050279 -0.11223667 0.10000000)
		(1.30726257 -0.12477555 0.10000000)
		(1.32402235 -0.13690947 0.10000000)
		(1.34078212 -0.14859907 0.10000000)
		(1.35754190 -0.15980641 0.10000000)
		(1.37430168 -0.17049511 0.10000000)
		(1.39106145 -0.18063049 0.10000000)
		(1.40782123 -0.19017964 0.10000000)
		(1.42458101 -0.19911158 0.10000000)
		(1.44134078 -0.20739733 0.10000000)
		(1.45810056 -0.21500999 0.10000000)
		(1.47486034 -0.22192485 0.10000000)
		(1.49162011 -0.22811948 0.10000000)
		(1.50837989 -0.23357376 0.10000000)
		(1.52513966 -0.23827001 0.10000000)
		(1.54189944 -0.24219297 0.10000000)
		(1.55865922 -0.24532991 0.10000000)
		(1.57541899 -0.24767066 0.10000000)
		(1.59217877 -0.24920762 0.10000000)
		(1.60893855 -0.24993580 0.10000000)
		(1.62569832 -0.24985284 0.10000000)
		(1.64245810 -0.24895900 0.10000000)
		(1.65921788 -0.24725719 0.10000000)
		(1.67597765 -0.24475293 0.10000000)
		(1.69273743 -0.24145434 0.10000000)
		(1.70949721 -0.23737214 0.10000000)
		(1.72625698 -0.23251957 0.10000000)
		(1.74301676 -0.22691238 0.10000000)
		(1.75977654 -0.22056876 0.10000000)
		(1.77653631 -0.21350931 0.10000000)
		(1.79329609 -0.20575694 0.10000000)
		(1.81005587 -0.19733680 0.10000000)
		(1.82681564 -0.18827622 0.10000000)
		(1.84357542 -0.17860461 0.10000000)
		(1.86033520 -0.16835335 0.10000000)
		(1.87709497 -0.15755572 0.10000000)
		(1.89385475 -0.14624676 0.10000000)
		(1.91061453 -0.13446317 0.10000000)
		(1.92737430 -0.12224319 0.10000000)
		(1.94413408 -0.10962648 0.10000000)
		(1.96089385 -0.09665399 0.10000000)
		(1.97765363 -0.08336781 0.10000000)
		(1.99441341 -0.06981108 0.10000000)
		(2.01117318 -0.05602778 0.10000000)
		(2.02793296 -0.04206264 0.10000000)
		(2.04469274 -0.02796100 0.10000000)
		(2.06145251 -0.01376861 0.10000000)
		(2.07821229 0.00046847 0.10000000)
		(2.09497207 0.01470402 0.10000000)
		(2.11173184 0.02889185 0.10000000)
		(2.12849162 0.04298592 0.10000000)
		(2.14525140 0.05694048 0.10000000)
		(2.16201117 0.07071025 0.10000000)
		(2.17877095 0.08425053 0.10000000)
		(2.19553073 0.09751738 0.10000000)
		(2.21229050 0.11046775 0.10000000)
		(2.22905028 0.12305961 0.10000000)
		(2.24581006 0.13525209 0.10000000)
		(2.26256983 0.14700562 0.10000000)
		(2.27932961 0.15828206 0.10000000)
		(2.29608939 0.16904481 0.10000000)
		(2.31284916 0.17925894 0.10000000)
		(2.32960894 0.18889130 0.10000000)
		(2.34636872 0.19791064 0.10000000)
		(2.36312849 0.20628767 0.10000000)
		(2.37988827 0.21399521 0.10000000)
		(2.39664804 0.22100826 0.10000000)
		(2.41340782 0.22730404 0.10000000)
		(2.43016760 0.23286213 0.10000000)
		(2.44692737 0.23766448 0.10000000)
		(2.46368715 0.24169552 0.10000000)
		(2.48044693 0.24494216 0.10000000)
		(2.49720670 0.24739386 0.10000000)
		(2.51396648 0.24904266 0.10000000)
		(2.53072626 0.24988323 0.10000000)
		(2.54748603 0.24991282 0.10000000)
		(2.56424581 0.24913134 0.10000000)
		(2.58100559 0.24754132 0.10000000)
		(2.59776536 0.24514794 0.10000000)
		(2.61452514 0.24195895 0.10000000)
		(2.63128492 0.23798471 0.10000000)
		(2.64804469 0.23323811 0.10000000)
		(2.66480447 0.22773455 0.10000000)
		(2.68156425 0.22149191 0.10000000)
		(2.69832402 0.21453043 0.10000000)
		(2.71508380 0.20687272 0.10000000)
		(2.73184358 0.19854362 0.10000000)
		(2.74860335 0.18957016 0.10000000)
		(2.76536313 0.17998147 0.10000000)
		(2.78212291 0.16980867 0.10000000)
		(2.79888268 0.15908477 0.10000000)
		(2.81564246 0.14784458 0.10000000)
		(2.83240223 0.13612457 0.10000000)
		(2.84916201 0.12396278 0.10000000)
		(2.86592179 0.11139868 0.10000000)
		(2.88268156 0.09847305 0.10000000)
		(2.89944134 0.08522783 0.10000000)
		(2.91620112 0.07170601 0.10000000)
		(2.93296089 0.05795148 0.10000000)
		(2.95166480 0.04722708 0.10000000)
		(2.97036872 0.03763156 0.10000000)
		(2.98907263 0.02916492 0.10000000)
		(3.00777654 0.02182717 0.10000000)
		(3.02648045 0.01561831 0.10000000)
		(3.04518436 0.01053833 0.10000000)
		(3.06388827 0.00658723 0.10000000)
		(3.08259218 0.00376502 0.10000000)
		(3.10129609 0.00207170 0.10000000)
		(3.12000000 0.00150725 0.10000000)
		(3.14000000 0.00150725 0.10000000)
		(3.16000000 0.00150725 0.10000000)
		(3.18000000 0.00150725 0.10000000)
		(3.20000000 0.00150725 0.10000000)
		(3.22000000 0.00150725 0.10000000)
		(3.24000000 0.00150725 0.10000000)
		(3.26000000 0.00150725 0.10000000)
		(3.28000000 0.00150725 0.10000000)
		(3.30000000 0.00150725 0.10000000)
		(3.32000000 0.00150725 0.10000000)
		(3.34000000 0.00150725 0.10000000)
		(3.36000000 0.00150725 0.10000000)
		(3.38000000 0.00150725 0.10000000)
		(3.40000000 0.00150725 0.10000000)
		(3.42000000 0.00150725 0.10000000)
		(3.44000000 0.00150725 0.10000000)
		(3.46000000 0.00150725 0.10000000)
		(3.48000000 0.00150725 0.10000000)
		(3.50000000 0.00150725 0.10000000)
		(3.52000000 0.00150725 0.10000000)
		(3.54000000 0.00150725 0.10000000)
		(3.56000000 0.00150725 0.10000000)
		(3.58000000 0.00150725 0.10000000)
		(3.60000000 0.00150725 0.10000000)
		(3.62000000 0.00150725 0.10000000)
		(3.64000000 0.00150725 0.10000000)
		(3.66000000 0.00150725 0.10000000)
		(3.68000000 0.00150725 0.10000000)
		(3.70000000 0.00150725 0.10000000)
		(3.72000000 0.00150725 0.10000000)
		(3.74000000 0.00150725 0.10000000)
		(3.76000000 0.00150725 0.10000000)
		(3.78000000 0.00150725 0.10000000)
		(3.80000000 0.00150725 0.10000000)
		(3.82000000 0.00150725 0.10000000)
		(3.84000000 0.00150725 0.10000000)
		(3.86000000 0.00150725 0.10000000)
		(3.88000000 0.00150725 0.10000000)
		(3.90000000 0.00150725 0.10000000)
		(3.92000000 0.00150725 0.10000000)
		(3.94000000 0.00150725 0.10000000)
		(3.96000000 0.00150725 0.10000000)
		(3.98000000 0.00150725 0.10000000)
		(4.00000000 0.00150725 0.10000000)
	)
	polyLine 3 2
	(
		(-1.00000000 0.32418249 0.00000000)
		(-0.98000000 0.32074314 0.00000000)
		(-0.96000000 0.31730378 0.00000000)
		(-0.94000000 0.31386443 0.00000000)
		(-0.92000000 0.31042507 0.00000000)
		(-0.90000000 0.30698572 0.00000000)
		(-0.88000000 0.30354636 0.00000000)
		(-0.86000000 0.30010701 0.00000000)
		(-0.84000000 0.29666765 0.00000000)
		(-0.82000000 0.29322830 0.00000000)
		(-0.80000000 0.28978894 0.00000000)
		(-0.78000000 0.28634959 0.00000000)
		(-0.76000000 0.28291023 0.00000000)
		(-0.74000000 0.27947088 0.00000000)
		(-0.72000000 0.27603152 0.00000000)
		(-0.70000000 0.27259216 0.00000000)
		(-0.68000000 0.26915281 0.00000000)
		(-0.66000000 0.26571345 0.00000000)
		(-0.64000000 0.26227410 0.00000000)
		(-0.62000000 0.25883474 0.00000000)
		(-0.60000000 0.25539539 0.00000000)
		(-0.58000000 0.25195603 0.00000000)
		(-0.56000000 0.24851668 0.00000000)
		(-0.54000000 0.24507732 0.00000000)
		(-0.52000000 0.24163797 0.00000000)
		(-0.50000000 0.23819861 0.00000000)
		(-0.48000000 0.23475926 0.00000000)
		(-0.46000000 0.23131990 0.00000000)
		(-0.44000000 0.22788055 0.00000000)
		(-0.42000000 0.22444119 0.00000000)
		(-0.40000000 0.22100183 0.00000000)
		(-0.38000000 0.21756248 0.00000000)
		(-0.36000000 0.21412312 0.00000000)
		(-0.34000000 0.21068377 0.00000000)
		(-0.32000000 0.20724441 0.00000000)
		(-0.30000000 0.20380506 0.00000000)
		(-0.28000000 0.20036570 0.00000000)
		(-0.26000000 0.19692635 0.00000000)
		(-0.24000000 0.19348699 0.00000000)
		(-0.22000000 0.19004764 0.00000000)
		(-0.20000000 0.18660828 0.00000000)
		(-0.18000000 0.18316893 0.00000000)
		(-0.16000000 0.17972957 0.00000000)
		(-0.14000000 0.17629022 0.00000000)
		(-0.12000000 0.17285086 0.00000000)
		(-0.10000000 0.16941150 0.00000000)
		(-0.08162011 0.16625997 0.00000000)
		(-0.06324022 0.16598546 0.00000000)
		(-0.04486034 0.16858797 0.00000000)
		(-0.02648045 0.17406750 0.00000000)
		(-0.00810056 0.18242404 0.00000000)
		(0.01027933 0.19365761 0.00000000)
		(0.02865922 0.20776819 0.00000000)
		(0.04703911 0.22475579 0.00000000)
		(0.06541899 0.24462041 0.00000000)
		(0.08379888 0.26736205 0.00000000)
		(0.10055866 0.29227384 0.00000000)
		(0.11731844 0.31785980 0.00000000)
		(0.13407821 0.34403686 0.00000000)
		(0.15083799 0.37072010 0.00000000)
		(0.16759777 0.39782290 0.00000000)
		(0.18435754 0.42525730 0.00000000)
		(0.20111732 0.45293428 0.00000000)
		(0.21787709 0.48076400 0.00000000)
		(0.23463687 0.50865615 0.00000000)
		(0.25139665 0.53652021 0.00000000)
		(0.26815642 0.56426575 0.00000000)
		(0.28491620 0.59180272 0.00000000)
		(0.30167598 0.61904175 0.00000000)
		(0.31843575 0.64589444 0.00000000)
		(0.33519553 0.67227365 0.00000000)
		(0.35195531 0.69809375 0.00000000)
		(0.36871508 0.72327096 0.00000000)
		(0.38547486 0.74772357 0.00000000)
		(0.40223464 0.77137222 0.00000000)
		(0.41899441 0.79414015 0.00000000)
		(0.43575419 0.81595347 0.00000000)
		(0.45251397 0.83674140 0.00000000)
		(0.46927374 0.85643647 0.00000000)
		(0.48603352 0.87497475 0.00000000)
		(0.50279330 0.89229609 0.00000000)
		(0.51955307 0.90834427 0.00000000)
		(0.53631285 0.92306720 0.00000000)
		(0.55307263 0.93641711 0.00000000)
		(0.56983240 0.94835067 0.00000000)
		(0.58659218 0.95882915 0.00000000)
		(0.60335196 0.96781854 0.00000000)
		(0.62011173 0.97528967 0.00000000)
		(0.63687151 0.98121829 0.00000000)
		(0.65363128 0.98558517 0.00000000)
		(0.67039106 0.98837612 0.00000000)
		(0.68715084 0.98958209 0.00000000)
		(0.70391061 0.98919917 0.00000000)
		(0.72067039 0.98722860 0.00000000)
		(0.73743017 0.98367677 0.00000000)
		(0.75418994 0.97855522 0.00000000)
		(0.77094972 0.97188056 0.00000000)
		(0.78770950 0.96367446 0.00000000)
		(0.80446927 0.95396354 0.00000000)
		(0.82122905 0.94277933 0.00000000)
		(0.83798883 0.93015812 0.00000000)
		(0.85474860 0.91614087 0.00000000)
		(0.87150838 0.90077307 0.00000000)
		(0.88826816 0.88410460 0.00000000)
		(0.90502793 0.86618956 0.00000000)
		(0.92178771 0.84708608 0.00000000)
		(0.93854749 0.82685617 0.00000000)
		(0.95530726 0.80556548 0.00000000)
		(0.97206704 0.78328310 0.00000000)
		(0.98882682 0.76008135 0.00000000)
		(1.00558659 0.73603554 0.00000000)
		(1.02234637 0.71122369 0.00000000)
		(1.03910615 0.68572633 0.00000000)
		(1.05586592 0.65962622 0.00000000)
		(1.07262570 0.63300806 0.00000000)
		(1.08938547 0.60595823 0.00000000)
		(1.10614525 0.57856452 0.00000000)
		(1.12290503 0.55091584 0.00000000)
		(1.13966480 0.52310192 0.00000000)
		(1.15642458 0.49521302 0.00000000)
		(1.17318436 0.46733966 0.00000000)
		(1.18994413 0.43957229 0.00000000)
		(1.20670391 0.41200103 0.00000000)
		(1.22346369 0.38471537 0.00000000)
		(1.24022346 0.35780386 0.00000000)
		(1.25698324 0.33135382 0.00000000)
		(1.27374302 0.30545112 0.00000000)
		(1.29050279 0.28017980 0.00000000)
		(1.30726257 0.25562189 0.00000000)
		(1.32402235 0.23185709 0.00000000)
		(1.34078212 0.20896252 0.00000000)
		(1.35754190 0.18701248 0.00000000)
		(1.37430168 0.16607822 0.00000000)
		(1.39106145 0.14622766 0.00000000)
		(1.40782123 0.12752525 0.00000000)
		(1.42458101 0.11003166 0.00000000)
		(1.44134078 0.09380368 0.00000000)
		(1.45810056 0.07889397 0.00000000)
		(1.47486034 0.06535093 0.00000000)
		(1.49162011 0.05321849 0.00000000)
		(1.50837989 0.04253605 0.00000000)
		(1.52513966 0.03333826 0.00000000)
		(1.54189944 0.02565497 0.00000000)
		(1.55865922 0.01951113 0.00000000)
		(1.57541899 0.01492668 0.00000000)
		(1.59217877 0.01191648 0.00000000)
		(1.60893855 0.01049031 0.00000000)
		(1.62569832 0.01065280 0.00000000)
		(1.64245810 0.01240342 0.00000000)
		(1.65921788 0.01573649 0.00000000)
		(1.67597765 0.02064119 0.00000000)
		(1.69273743 0.02710160 0.00000000)
		(1.70949721 0.03509677 0.00000000)
		(1.72625698 0.04460073 0.00000000)
		(1.74301676 0.05558265 0.00000000)
		(1.75977654 0.06800688 0.00000000)
		(1.77653631 0.08183311 0.00000000)
		(1.79329609 0.09701646 0.00000000)
		(1.81005587 0.11350765 0.00000000)
		(1.82681564 0.13125317 0.00000000)
		(1.84357542 0.15019543 0.00000000)
		(1.86033520 0.17027294 0.00000000)
		(1.87709497 0.19142055 0.00000000)
		(1.89385475 0.21356962 0.00000000)
		(1.91061453 0.23664828 0.00000000)
		(1.92737430 0.26058162 0.00000000)
		(1.94413408 0.28529197 0.00000000)
		(1.96089385 0.31069914 0.00000000)
		(1.97765363 0.33672066 0.00000000)
		(1.99441341 0.36327209 0.00000000)
		(2.01117318 0.39026726 0.00000000)
		(2.02793296 0.41761856 0.00000000)
		(2.04469274 0.44523722 0.00000000)
		(2.06145251 0.47303361 0.00000000)
		(2.07821229 0.50091751 0.00000000)
		(2.09497207 0.52879844 0.00000000)
		(2.11173184 0.55658590 0.00000000)
		(2.12849162 0.58418972 0.00000000)
		(2.14525140 0.61152031 0.00000000)
		(2.16201117 0.63848897 0.00000000)
		(2.17877095 0.66500817 0.00000000)
		(2.19553073 0.69099186 0.00000000)
		(2.21229050 0.71635570 0.00000000)
		(2.22905028 0.74101738 0.00000000)
		(2.24581006 0.76489686 0.00000000)
		(2.26256983 0.78791665 0.00000000)
		(2.27932961 0.81000202 0.00000000)
		(2.29608939 0.83108131 0.00000000)
		(2.31284916 0.85108611 0.00000000)
		(2.32960894 0.86995150 0.00000000)
		(2.34636872 0.88761624 0.00000000)
		(2.36312849 0.90402300 0.00000000)
		(2.37988827 0.91911855 0.00000000)
		(2.39664804 0.93285389 0.00000000)
		(2.41340782 0.94518444 0.00000000)
		(2.43016760 0.95607019 0.00000000)
		(2.44692737 0.96547580 0.00000000)
		(2.46368715 0.97337075 0.00000000)
		(2.48044693 0.97972943 0.00000000)
		(2.49720670 0.98453119 0.00000000)
		(2.51396648 0.98776044 0.00000000)
		(2.53072626 0.98940672 0.00000000)