/*--------------------------------*- C++ -*----------------------------------*\\
/*--------------------------------*- C++ -*----------------------------------*\\
| =========                 |                                                 |
| \\\\      /  F ield         | OpenFOAM: The Open Source CFD Toolbox           |
|  \\\\    /   O peration     | Version:  v2012                                 |
|   \\\\  /    A nd           | Website:  www.openfoam.com                      |
|    \\\\/     M anipulation  |                                                 |
\\*---------------------------------------------------------------------------*/
FoamFile
{
    version     2.0;
    format      ascii;
    class       dictionary;
    object      blockMeshDict;
}
// * * * * * * * * * * * * * * * * * * * * * * * * * * * * * * * * * * * * * //

scale   0.01;

xmin -1;
xmax 5;
ymin 0;
ymax 0.5;
zmin 0;
zmax 0.1;

vertices
(
    (-1.00000000 -0.18659889 0.00000000)
    (4.00000000 0.03881572 0.00000000)
    (4.00000000 0.53881572 0.00000000)
    (-1.00000000 0.31340111 0.00000000)
    (-1.00000000 -0.18659889 0.10000000)
    (4.00000000 0.03881572 0.10000000)
    (4.00000000 0.53881572 0.10000000)
    (-1.00000000 0.31340111 0.10000000)
);

blocks
(
    hex (0 1 2 3 4 5 6 7) (200 20 1) simpleGrading (1 1 1)
);

edges
(
	polyLine 0 1
	(
		(-1.00000000 -0.18659889 0.00000000)
		(-0.98000000 -0.18659889 0.00000000)
		(-0.96000000 -0.18659889 0.00000000)
		(-0.94000000 -0.18659889 0.00000000)
		(-0.92000000 -0.18659889 0.00000000)
		(-0.90000000 -0.18659889 0.00000000)
		(-0.88000000 -0.18659889 0.00000000)
		(-0.86000000 -0.18659889 0.00000000)
		(-0.84000000 -0.18659889 0.00000000)
		(-0.82000000 -0.18659889 0.00000000)
		(-0.80000000 -0.18659889 0.00000000)
		(-0.78000000 -0.18659889 0.00000000)
		(-0.76000000 -0.18659889 0.00000000)
		(-0.74000000 -0.18659889 0.00000000)
		(-0.72000000 -0.18659889 0.00000000)
		(-0.70000000 -0.18659889 0.00000000)
		(-0.68000000 -0.18659889 0.00000000)
		(-0.66000000 -0.18659889 0.00000000)
		(-0.64000000 -0.18659889 0.00000000)
		(-0.62000000 -0.18659889 0.00000000)
		(-0.60000000 -0.18659889 0.00000000)
		(-0.58000000 -0.18659889 0.00000000)
		(-0.56000000 -0.18659889 0.00000000)
		(-0.54000000 -0.18659889 0.00000000)
		(-0.52000000 -0.18659889 0.00000000)
		(-0.50000000 -0.18659889 0.00000000)
		(-0.48000000 -0.18659889 0.00000000)
		(-0.46000000 -0.18659889 0.00000000)
		(-0.44000000 -0.18659889 0.00000000)
		(-0.42000000 -0.18659889 0.00000000)
		(-0.40000000 -0.18659889 0.00000000)
		(-0.38000000 -0.18659889 0.00000000)
		(-0.36000000 -0.18659889 0.00000000)
		(-0.34000000 -0.18659889 0.00000000)
		(-0.32000000 -0.18659889 0.00000000)
		(-0.30000000 -0.18659889 0.00000000)
		(-0.28000000 -0.18659889 0.00000000)
		(-0.26000000 -0.18659889 0.00000000)
		(-0.24000000 -0.18659889 0.00000000)
		(-0.22000000 -0.18659889 0.00000000)
		(-0.20000000 -0.18659889 0.00000000)
		(-0.18000000 -0.18659889 0.00000000)
		(-0.16000000 -0.18659889 0.00000000)
		(-0.14000000 -0.18659889 0.00000000)
		(-0.12000000 -0.18659889 0.00000000)
		(-0.10000000 -0.18659889 0.00000000)
		(-0.08162011 -0.18606126 0.00000000)
		(-0.06324022 -0.18444837 0.00000000)
		(-0.04486034 -0.18176021 0.00000000)
		(-0.02648045 -0.17799678 0.00000000)
		(-0.00810056 -0.17315810 0.00000000)
		(0.01027933 -0.16724415 0.00000000)
		(0.02865922 -0.16025493 0.00000000)
		(0.04703911 -0.15219045 0.00000000)
		(0.06541899 -0.14305071 0.00000000)
		(0.08379888 -0.13283571 0.00000000)
		(0.10055866 -0.12066645 0.00000000)
		(0.11731844 -0.10811224 0.00000000)
		(0.13407821 -0.09521314 0.00000000)
		(0.15083799 -0.08201030 0.00000000)
		(0.16759777 -0.06854583 0.00000000)
		(0.18435754 -0.05486269 0.00000000)
		(0.20111732 -0.04100453 0.00000000)
		(0.21787709 -0.02701556 0.00000000)
		(0.23463687 -0.01294040 0.00000000)
		(0.25139665 0.00117604 0.00000000)
		(0.26815642 0.01528872 0.00000000)
		(0.28491620 0.02935263 0.00000000)
		(0.30167598 0.04332290 0.00000000)
		(0.31843575 0.05715497 0.00000000)
		(0.33519553 0.07080470 0.00000000)
		(0.35195531 0.08422856 0.00000000)
		(0.36871508 0.09738371 0.00000000)
		(0.38547486 0.11022820 0.00000000)
		(0.40223464 0.12272104 0.00000000)
		(0.41899441 0.13482238 0.00000000)
		(0.43575419 0.14649362 0.00000000)
		(0.45251397 0.15769752 0.00000000)
		(0.46927374 0.16839835 0.00000000)
		(0.48603352 0.17856196 0.00000000)
		(0.50279330 0.18815593 0.00000000)
		(0.51955307 0.19714965 0.00000000)
		(0.53631285 0.20551444 0.00000000)
		(0.55307263 0.21322361 0.00000000)
		(0.56983240 0.22025256 0.00000000)
		(0.58659218 0.22657887 0.00000000)
		(0.60335196 0.23218237 0.00000000)
		(0.62011173 0.23704516 0.00000000)
		(0.63687151 0.24115175 0.00000000)
		(0.65363128 0.24448903 0.00000000)
		(0.67039106 0.24704635 0.00000000)
		(0.68715084 0.24881556 0.00000000)
		(0.70391061 0.24979101 0.00000000)
		(0.72067039 0.24996959 0.00000000)
		(0.73743017 0.24935073 0.00000000)
		(0.75418994 0.24793641 0.00000000)
		(0.77094972 0.24573113 0.00000000)
		(0.78770950 0.24274193 0.00000000)
		(0.80446927 0.23897835 0.00000000)
		(0.82122905 0.23445239 0.00000000)
		(0.83798883 0.22917849 0.00000000)
		(0.85474860 0.22317349 0.00000000)
		(0.87150838 0.21645652 0.00000000)
		(0.88826816 0.20904903 0.00000000)
		(0.90502793 0.20097464 0.00000000)
		(0.92178771 0.19225911 0.00000000)
		(0.93854749 0.18293024 0.00000000)
		(0.95530726 0.17301781 0.00000000)
		(0.97206704 0.16255341 0.00000000)
		(0.98882682 0.15157045 0.00000000)
		(1.00558659 0.14010396 0.00000000)
		(1.02234637 0.12819052 0.00000000)
		(1.03910615 0.11586813 0.00000000)
		(1.05586592 0.10317610 0.00000000)
		(1.07262570 0.09015492 0.00000000)
		(1.08938547 0.07684614 0.00000000)
		(1.10614525 0.06329221 0.00000000)
		(1.12290503 0.04953636 0.00000000)
		(1.13966480 0.03562249 0.00000000)
		(1.15642458 0.02159497 0.00000000)
		(1.17318436 0.00749857 0.00000000)
		(1.18994413 -0.00662176 0.00000000)
		(1.20670391 -0.02072096 0.00000000)
		(1.22346369 -0.03475406 0.00000000)
		(1.24022346 -0.04867629 0.00000000)
		(1.25698324 -0.06244323 0.00000000)
		(1.27374302 -0.07601097 0.00000000)
		(1.29050279 -0.08933623 0.00000000)
		(1.30726257 -0.10237649 0.00000000)
		(1.32402235 -0.11509015 0.00000000)
		(1.34078212 -0.12743666 0.00000000)
		(1.35754190 -0.13937662 0.00000000)
		(1.37430168 -0.15087196 0.00000000)
		(1.39106145 -0.16188599 0.00000000)
		(1.40782123 -0.17238358 0.00000000)
		(1.42458101 -0.18233124 0.00000000)
		(1.44134078 -0.19169724 0.00000000)
		(1.45810056 -0.20045169 0.00000000)
		(1.47486034 -0.20856668 0.00000000)
		(1.49162011 -0.21601631 0.00000000)
		(1.50837989 -0.22277681 0.00000000)
		(1.52513966 -0.22882662 0.00000000)
		(1.54189944 -0.23414644 0.00000000)
		(1.55865922 -0.23871930 0.00000000)
		(1.57541899 -0.24253061 0.00000000)
		(1.59217877 -0.24556821 0.00000000)
		(1.60893855 -0.24782241 0.00000000)
		(1.62569832 -0.24928602 0.00000000)
		(1.64245810 -0.24995437 0.00000000)
		(1.65921788 -0.24982533 0.00000000)
		(1.67597765 -0.24889931 0.00000000)
		(1.69273743 -0.24717927 0.00000000)
		(1.70949721 -0.24467069 0.00000000)
		(1.72625698 -0.24138157 0.00000000)
		(1.74301676 -0.23732241 0.00000000)
		(1.75977654 -0.23250615 0.00000000)
		(1.77653631 -0.22694817 0.00000000)
		(1.79329609 -0.22066618 0.00000000)
		(1.81005587 -0.21368024 0.00000000)
		(1.82681564 -0.20601263 0.00000000)
		(1.84357542 -0.19768781 0.00000000)
		(1.86033520 -0.18873234 0.00000000)
		(1.87709497 -0.17917478 0.00000000)
		(1.89385475 -0.16904562 0.00000000)
		(1.91061453 -0.15837719 0.00000000)
		(1.92737430 -0.14720351 0.00000000)
		(1.94413408 -0.13556022 0.00000000)
		(1.96089385 -0.12348449 0.00000000)
		(1.97765363 -0.11101481 0.00000000)
		(1.99441341 -0.09819099 0.00000000)
		(2.01117318 -0.08505392 0.00000000)
		(2.02793296 -0.07164551 0.00000000)
		(2.04469274 -0.05800855 0.00000000)
		(2.06145251 -0.04418653 0.00000000)
		(2.07821229 -0.03022354 0.00000000)
		(2.09497207 -0.01616414 0.00000000)
		(2.11173184 -0.00205318 0.00000000)
		(2.12849162 0.01206434 0.00000000)
		(2.14525140 0.02614336 0.00000000)
		(2.16201117 0.04013899 0.00000000)
		(2.17877095 0.05400657 0.00000000)
		(2.19553073 0.06770186 0.00000000)
		(2.21229050 0.08118117 0.00000000)
		(2.22905028 0.09440150 0.00000000)
		(2.24581006 0.10732067 0.00000000)
		(2.26256983 0.11989748 0.00000000)
		(2.27932961 0.13209180 0.00000000)
		(2.29608939 0.14386472 0.00000000)
		(2.31284916 0.15517869 0.00000000)
		(2.32960894 0.16599763 0.00000000)
		(2.34636872 0.17628700 0.00000000)
		(2.36312849 0.18601399 0.00000000)
		(2.37988827 0.19514757 0.00000000)
		(2.39664804 0.20365860 0.00000000)
		(2.41340782 0.21151993 0.00000000)
		(2.43016760 0.21870648 0.00000000)
		(2.44692737 0.22519532 0.00000000)
		(2.46368715 0.23096576 0.00000000)
		(2.48044693 0.23599938 0.00000000)
		(2.49720670 0.24028013 0.00000000)
		(2.51396648 0.24379435 0.00000000)
		(2.53072626 0.24653083 0.00000000)
		(2.54748603 0.24848085 0.00000000)
		(2.56424581 0.24963816 0.00000000)
		(2.58100559 0.24999910 0.00000000)
		(2.59776536 0.24956251 0.00000000)
		(2.61452514 0.24832977 0.00000000)
		(2.63128492 0.24630482 0.00000000)
		(2.64804469 0.24349412 0.00000000)
		(2.66480447 0.23990665 0.00000000)
		(2.68156425 0.23555383 0.00000000)
		(2.69832402 0.23044956 0.00000000)
		(2.71508380 0.22461013 0.00000000)
		(2.73184358 0.21805415 0.00000000)
		(2.74860335 0.21080255 0.00000000)
		(2.76536313 0.20287846 0.00000000)
		(2.78212291 0.19430716 0.00000000)
		(2.79888268 0.18511599 0.00000000)
		(2.81564246 0.17533427 0.00000000)
		(2.83240223 0.16499321 0.00000000)
		(2.84916201 0.15412579 0.00000000)
		(2.86592179 0.14276669 0.00000000)
		(2.88268156 0.13095215 0.00000000)
		(2.89944134 0.11871985 0.00000000)
		(2.91620112 0.10610881 0.00000000)
		(2.93296089 0.09315927 0.00000000)
		(2.95166480 0.08283400 0.00000000)
		(2.97036872 0.07359559 0.00000000)
		(2.98907263 0.06544406 0.00000000)
		(3.00777654 0.05837940 0.00000000)
		(3.02648045 0.05240161 0.00000000)
		(3.04518436 0.04751069 0.00000000)
		(3.06388827 0.04370664 0.00000000)
		(3.08259218 0.04098946 0.00000000)
		(3.10129609 0.03935916 0.00000000)
		(3.12000000 0.03881572 0.00000000)
		(3.14000000 0.03881572 0.00000000)
		(3.16000000 0.03881572 0.00000000)
		(3.18000000 0.03881572 0.00000000)
		(3.20000000 0.03881572 0.00000000)
		(3.22000000 0.03881572 0.00000000)
		(3.24000000 0.03881572 0.00000000)
		(3.26000000 0.03881572 0.00000000)
		(3.28000000 0.03881572 0.00000000)
		(3.30000000 0.03881572 0.00000000)
		(3.32000000 0.03881572 0.00000000)
		(3.34000000 0.03881572 0.00000000)
		(3.36000000 0.03881572 0.00000000)
		(3.38000000 0.03881572 0.00000000)
		(3.40000000 0.03881572 0.00000000)
		(3.42000000 0.03881572 0.00000000)
		(3.44000000 0.03881572 0.00000000)
		(3.46000000 0.03881572 0.00000000)
		(3.48000000 0.03881572 0.00000000)
		(3.50000000 0.03881572 0.00000000)
		(3.52000000 0.03881572 0.00000000)
		(3.54000000 0.03881572 0.00000000)
		(3.56000000 0.03881572 0.00000000)
		(3.58000000 0.03881572 0.00000000)
		(3.60000000 0.03881572 0.00000000)
		(3.62000000 0.03881572 0.00000000)
		(3.64000000 0.03881572 0.00000000)
		(3.66000000 0.03881572 0.00000000)
		(3.68000000 0.03881572 0.00000000)
		(3.70000000 0.03881572 0.00000000)
		(3.72000000 0.03881572 0.00000000)
		(3.74000000 0.03881572 0.00000000)
		(3.76000000 0.03881572 0.00000000)
		(3.78000000 0.03881572 0.00000000)
		(3.80000000 0.03881572 0.00000000)
		(3.82000000 0.03881572 0.00000000)
		(3.84000000 0.03881572 0.00000000)
		(3.86000000 0.03881572 0.00000000)
		(3.88000000 0.03881572 0.00000000)
		(3.90000000 0.03881572 0.00000000)
		(3.92000000 0.03881572 0.00000000)
		(3.94000000 0.03881572 0.00000000)
		(3.96000000 0.03881572 0.00000000)
		(3.98000000 0.03881572 0.00000000)
		(4.00000000 0.03881572 0.00000000)
	)
	polyLine 4 5
	(
		(-1.00000000 -0.18659889 0.10000000)
		(-0.98000000 -0.18659889 0.10000000)
		(-0.96000000 -0.18659889 0.10000000)
		(-0.94000000 -0.18659889 0.10000000)
		(-0.92000000 -0.18659889 0.10000000)
		(-0.90000000 -0.18659889 0.10000000)
		(-0.88000000 -0.18659889 0.10000000)
		(-0.86000000 -0.18659889 0.10000000)
		(-0.84000000 -0.18659889 0.10000000)
		(-0.82000000 -0.18659889 0.10000000)
		(-0.80000000 -0.18659889 0.10000000)
		(-0.78000000 -0.18659889 0.10000000)
		(-0.76000000 -0.18659889 0.10000000)
		(-0.74000000 -0.18659889 0.10000000)
		(-0.72000000 -0.18659889 0.10000000)
		(-0.70000000 -0.18659889 0.10000000)
		(-0.68000000 -0.18659889 0.10000000)
		(-0.66000000 -0.18659889 0.10000000)
		(-0.64000000 -0.18659889 0.10000000)
		(-0.62000000 -0.18659889 0.10000000)
		(-0.60000000 -0.18659889 0.10000000)
		(-0.58000000 -0.18659889 0.10000000)
		(-0.56000000 -0.18659889 0.10000000)
		(-0.54000000 -0.18659889 0.10000000)
		(-0.52000000 -0.18659889 0.10000000)
		(-0.50000000 -0.18659889 0.10000000)
		(-0.48000000 -0.18659889 0.10000000)
		(-0.46000000 -0.18659889 0.10000000)
		(-0.44000000 -0.18659889 0.10000000)
		(-0.42000000 -0.18659889 0.10000000)
		(-0.40000000 -0.18659889 0.10000000)
		(-0.38000000 -0.18659889 0.10000000)
		(-0.36000000 -0.18659889 0.10000000)
		(-0.34000000 -0.18659889 0.10000000)
		(-0.32000000 -0.18659889 0.10000000)
		(-0.30000000 -0.18659889 0.10000000)
		(-0.28000000 -0.18659889 0.10000000)
		(-0.26000000 -0.18659889 0.10000000)
		(-0.24000000 -0.18659889 0.10000000)
		(-0.22000000 -0.18659889 0.10000000)
		(-0.20000000 -0.18659889 0.10000000)
		(-0.18000000 -0.18659889 0.10000000)
		(-0.16000000 -0.18659889 0.10000000)
		(-0.14000000 -0.18659889 0.10000000)
		(-0.12000000 -0.18659889 0.10000000)
		(-0.10000000 -0.18659889 0.10000000)
		(-0.08162011 -0.18606126 0.10000000)
		(-0.06324022 -0.18444837 0.10000000)
		(-0.04486034 -0.18176021 0.10000000)
		(-0.02648045 -0.17799678 0.10000000)
		(-0.00810056 -0.17315810 0.10000000)
		(0.01027933 -0.16724415 0.10000000)
		(0.02865922 -0.16025493 0.10000000)
		(0.04703911 -0.15219045 0.10000000)
		(0.06541899 -0.14305071 0.10000000)
		(0.08379888 -0.13283571 0.10000000)
		(0.10055866 -0.12066645 0.10000000)
		(0.11731844 -0.10811224 0.10000000)
		(0.13407821 -0.09521314 0.10000000)
		(0.15083799 -0.08201030 0.10000000)
		(0.16759777 -0.06854583 0.10000000)
		(0.18435754 -0.05486269 0.10000000)
		(0.20111732 -0.04100453 0.10000000)
		(0.21787709 -0.02701556 0.10000000)
		(0.23463687 -0.01294040 0.10000000)
		(0.25139665 0.00117604 0.10000000)
		(0.26815642 0.01528872 0.10000000)
		(0.28491620 0.02935263 0.10000000)
		(0.30167598 0.04332290 0.10000000)
		(0.31843575 0.05715497 0.10000000)
		(0.33519553 0.07080470 0.10000000)
		(0.35195531 0.08422856 0.10000000)
		(0.36871508 0.09738371 0.10000000)
		(0.38547486 0.11022820 0.10000000)
		(0.40223464 0.12272104 0.10000000)
		(0.41899441 0.13482238 0.10000000)
		(0.43575419 0.14649362 0.10000000)
		(0.45251397 0.15769752 0.10000000)
		(0.46927374 0.16839835 0.10000000)
		(0.48603352 0.17856196 0.10000000)
		(0.50279330 0.18815593 0.10000000)
		(0.51955307 0.19714965 0.10000000)
		(0.53631285 0.20551444 0.10000000)
		(0.55307263 0.21322361 0.10000000)
		(0.56983240 0.22025256 0.10000000)
		(0.58659218 0.22657887 0.10000000)
		(0.60335196 0.23218237 0.10000000)
		(0.62011173 0.23704516 0.10000000)
		(0.63687151 0.24115175 0.10000000)
		(0.65363128 0.24448903 0.10000000)
		(0.67039106 0.24704635 0.10000000)
		(0.68715084 0.24881556 0.10000000)
		(0.70391061 0.24979101 0.10000000)
		(0.72067039 0.24996959 0.10000000)
		(0.73743017 0.24935073 0.10000000)
		(0.75418994 0.24793641 0.10000000)
		(0.77094972 0.24573113 0.10000000)
		(0.78770950 0.24274193 0.10000000)
		(0.80446927 0.23897835 0.10000000)
		(0.82122905 0.23445239 0.10000000)
		(0.83798883 0.22917849 0.10000000)
		(0.85474860 0.22317349 0.10000000)
		(0.87150838 0.21645652 0.10000000)
		(0.88826816 0.20904903 0.10000000)
		(0.90502793 0.20097464 0.10000000)
		(0.92178771 0.19225911 0.10000000)
		(0.93854749 0.18293024 0.10000000)
		(0.95530726 0.17301781 0.10000000)
		(0.97206704 0.16255341 0.10000000)
		(0.98882682 0.15157045 0.10000000)
		(1.00558659 0.14010396 0.10000000)
		(1.02234637 0.12819052 0.10000000)
		(1.03910615 0.11586813 0.10000000)
		(1.05586592 0.10317610 0.10000000)
		(1.07262570 0.09015492 0.10000000)
		(1.08938547 0.07684614 0.10000000)
		(1.10614525 0.06329221 0.10000000)
		(1.12290503 0.04953636 0.10000000)
		(1.13966480 0.03562249 0.10000000)
		(1.15642458 0.02159497 0.10000000)
		(1.17318436 0.00749857 0.10000000)
		(1.18994413 -0.00662176 0.10000000)
		(1.20670391 -0.02072096 0.10000000)
		(1.22346369 -0.03475406 0.10000000)
		(1.24022346 -0.04867629 0.10000000)
		(1.25698324 -0.06244323 0.10000000)
		(1.27374302 -0.07601097 0.10000000)
		(1.29050279 -0.08933623 0.10000000)
		(1.30726257 -0.10237649 0.10000000)
		(1.32402235 -0.11509015 0.10000000)
		(1.34078212 -0.12743666 0.10000000)
		(1.35754190 -0.13937662 0.10000000)
		(1.37430168 -0.15087196 0.10000000)
		(1.39106145 -0.16188599 0.10000000)
		(1.40782123 -0.17238358 0.10000000)
		(1.42458101 -0.18233124 0.10000000)
		(1.44134078 -0.19169724 0.10000000)
		(1.45810056 -0.20045169 0.10000000)
		(1.47486034 -0.20856668 0.10000000)
		(1.49162011 -0.21601631 0.10000000)
		(1.50837989 -0.22277681 0.10000000)
		(1.52513966 -0.22882662 0.10000000)
		(1.54189944 -0.23414644 0.10000000)
		(1.55865922 -0.23871930 0.10000000)
		(1.57541899 -0.24253061 0.10000000)
		(1.59217877 -0.24556821 0.10000000)
		(1.60893855 -0.24782241 0.10000000)
		(1.62569832 -0.24928602 0.10000000)
		(1.64245810 -0.24995437 0.10000000)
		(1.65921788 -0.24982533 0.10000000)
		(1.67597765 -0.24889931 0.10000000)
		(1.69273743 -0.24717927 0.10000000)
		(1.70949721 -0.24467069 0.10000000)
		(1.72625698 -0.24138157 0.10000000)
		(1.74301676 -0.23732241 0.10000000)
		(1.75977654 -0.23250615 0.10000000)
		(1.77653631 -0.22694817 0.10000000)
		(1.79329609 -0.22066618 0.10000000)
		(1.81005587 -0.21368024 0.10000000)
		(1.82681564 -0.20601263 0.10000000)
		(1.84357542 -0.19768781 0.10000000)
		(1.86033520 -0.18873234 0.10000000)
		(1.87709497 -0.17917478 0.10000000)
		(1.89385475 -0.16904562 0.10000000)
		(1.91061453 -0.15837719 0.10000000)
		(1.92737430 -0.14720351 0.10000000)
		(1.94413408 -0.13556022 0.10000000)
		(1.96089385 -0.12348449 0.10000000)
		(1.97765363 -0.11101481 0.10000000)
		(1.99441341 -0.09819099 0.10000000)
		(2.01117318 -0.08505392 0.10000000)
		(2.02793296 -0.07164551 0.10000000)
		(2.04469274 -0.05800855 0.10000000)
		(2.06145251 -0.04418653 0.10000000)
		(2.07821229 -0.03022354 0.10000000)
		(2.09497207 -0.01616414 0.10000000)
		(2.11173184 -0.00205318 0.10000000)
		(2.12849162 0.01206434 0.10000000)
		(2.14525140 0.02614336 0.10000000)
		(2.16201117 0.04013899 0.10000000)
		(2.17877095 0.05400657 0.10000000)
		(2.19553073 0.06770186 0.10000000)
		(2.21229050 0.08118117 0.10000000)
		(2.22905028 0.09440150 0.10000000)
		(2.24581006 0.10732067 0.10000000)
		(2.26256983 0.11989748 0.10000000)
		(2.27932961 0.13209180 0.10000000)
		(2.29608939 0.14386472 0.10000000)
		(2.31284916 0.15517869 0.10000000)
		(2.32960894 0.16599763 0.10000000)
		(2.34636872 0.17628700 0.10000000)
		(2.36312849 0.18601399 0.10000000)
		(2.37988827 0.19514757 0.10000000)
		(2.39664804 0.20365860 0.10000000)
		(2.41340782 0.21151993 0.10000000)
		(2.43016760 0.21870648 0.10000000)
		(2.44692737 0.22519532 0.10000000)
		(2.46368715 0.23096576 0.10000000)
		(2.48044693 0.23599938 0.10000000)
		(2.49720670 0.24028013 0.10000000)
		(2.51396648 0.24379435 0.10000000)
		(2.53072626 0.24653083 0.10000000)
		(2.54748603 0.24848085 0.10000000)
		(2.56424581 0.24963816 0.10000000)
		(2.58100559 0.24999910 0.10000000)
		(2.59776536 0.24956251 0.10000000)
		(2.61452514 0.24832977 0.10000000)
		(2.63128492 0.24630482 0.10000000)
		(2.64804469 0.24349412 0.10000000)
		(2.66480447 0.23990665 0.10000000)
		(2.68156425 0.23555383 0.10000000)
		(2.69832402 0.23044956 0.10000000)
		(2.71508380 0.22461013 0.10000000)
		(2.73184358 0.21805415 0.10000000)
		(2.74860335 0.21080255 0.10000000)
		(2.76536313 0.20287846 0.10000000)
		(2.78212291 0.19430716 0.10000000)
		(2.79888268 0.18511599 0.10000000)
		(2.81564246 0.17533427 0.10000000)
		(2.83240223 0.16499321 0.10000000)
		(2.84916201 0.15412579 0.10000000)
		(2.86592179 0.14276669 0.10000000)
		(2.88268156 0.13095215 0.10000000)
		(2.89944134 0.11871985 0.10000000)
		(2.91620112 0.10610881 0.10000000)
		(2.93296089 0.09315927 0.10000000)
		(2.95166480 0.08283400 0.10000000)
		(2.97036872 0.07359559 0.10000000)
		(2.98907263 0.06544406 0.10000000)
		(3.00777654 0.05837940 0.10000000)
		(3.02648045 0.05240161 0.10000000)
		(3.04518436 0.04751069 0.10000000)
		(3.06388827 0.04370664 0.10000000)
		(3.08259218 0.04098946 0.10000000)
		(3.10129609 0.03935916 0.10000000)
		(3.12000000 0.03881572 0.10000000)
		(3.14000000 0.03881572 0.10000000)
		(3.16000000 0.03881572 0.10000000)
		(3.18000000 0.03881572 0.10000000)
		(3.20000000 0.03881572 0.10000000)
		(3.22000000 0.03881572 0.10000000)
		(3.24000000 0.03881572 0.10000000)
		(3.26000000 0.03881572 0.10000000)
		(3.28000000 0.03881572 0.10000000)
		(3.30000000 0.03881572 0.10000000)
		(3.32000000 0.03881572 0.10000000)
		(3.34000000 0.03881572 0.10000000)
		(3.36000000 0.03881572 0.10000000)
		(3.38000000 0.03881572 0.10000000)
		(3.40000000 0.03881572 0.10000000)
		(3.42000000 0.03881572 0.10000000)
		(3.44000000 0.03881572 0.10000000)
		(3.46000000 0.03881572 0.10000000)
		(3.48000000 0.03881572 0.10000000)
		(3.50000000 0.03881572 0.10000000)
		(3.52000000 0.03881572 0.10000000)
		(3.54000000 0.03881572 0.10000000)
		(3.56000000 0.03881572 0.10000000)
		(3.58000000 0.03881572 0.10000000)
		(3.60000000 0.03881572 0.10000000)
		(3.62000000 0.03881572 0.10000000)
		(3.64000000 0.03881572 0.10000000)
		(3.66000000 0.03881572 0.10000000)
		(3.68000000 0.03881572 0.10000000)
		(3.70000000 0.03881572 0.10000000)
		(3.72000000 0.03881572 0.10000000)
		(3.74000000 0.03881572 0.10000000)
		(3.76000000 0.03881572 0.10000000)
		(3.78000000 0.03881572 0.10000000)
		(3.80000000 0.03881572 0.10000000)
		(3.82000000 0.03881572 0.10000000)
		(3.84000000 0.03881572 0.10000000)
		(3.86000000 0.03881572 0.10000000)
		(3.88000000 0.03881572 0.10000000)
		(3.90000000 0.03881572 0.10000000)
		(3.92000000 0.03881572 0.10000000)
		(3.94000000 0.03881572 0.10000000)
		(3.96000000 0.03881572 0.10000000)
		(3.98000000 0.03881572 0.10000000)
		(4.00000000 0.03881572 0.10000000)
	)
	polyLine 3 2
	(
		(-1.00000000 0.31340111 0.00000000)
		(-0.98000000 0.31383274 0.00000000)
		(-0.96000000 0.31426438 0.00000000)
		(-0.94000000 0.31469602 0.00000000)
		(-0.92000000 0.31512765 0.00000000)
		(-0.90000000 0.31555929 0.00000000)
		(-0.88000000 0.31599092 0.00000000)
		(-0.86000000 0.31642256 0.00000000)
		(-0.84000000 0.31685419 0.00000000)
		(-0.82000000 0.31728583 0.00000000)
		(-0.80000000 0.31771747 0.00000000)
		(-0.78000000 0.31814910 0.00000000)
		(-0.76000000 0.31858074 0.00000000)
		(-0.74000000 0.31901237 0.00000000)
		(-0.72000000 0.31944401 0.00000000)
		(-0.70000000 0.31987565 0.00000000)
		(-0.68000000 0.32030728 0.00000000)
		(-0.66000000 0.32073892 0.00000000)
		(-0.64000000 0.32117055 0.00000000)
		(-0.62000000 0.32160219 0.00000000)
		(-0.60000000 0.32203382 0.00000000)
		(-0.58000000 0.32246546 0.00000000)
		(-0.56000000 0.32289710 0.00000000)
		(-0.54000000 0.32332873 0.00000000)
		(-0.52000000 0.32376037 0.00000000)
		(-0.50000000 0.32419200 0.00000000)
		(-0.48000000 0.32462364 0.00000000)
		(-0.46000000 0.32505528 0.00000000)
		(-0.44000000 0.32548691 0.00000000)
		(-0.42000000 0.32591855 0.00000000)
		(-0.40000000 0.32635018 0.00000000)
		(-0.38000000 0.32678182 0.00000000)
		(-0.36000000 0.32721346 0.00000000)
		(-0.34000000 0.32764509 0.00000000)
		(-0.32000000 0.32807673 0.00000000)
		(-0.30000000 0.32850836 0.00000000)
		(-0.28000000 0.32894000 0.00000000)
		(-0.26000000 0.32937163 0.00000000)
		(-0.24000000 0.32980327 0.00000000)
		(-0.22000000 0.33023491 0.00000000)
		(-0.20000000 0.33066654 0.00000000)
		(-0.18000000 0.33109818 0.00000000)
		(-0.16000000 0.33152981 0.00000000)
		(-0.14000000 0.33196145 0.00000000)
		(-0.12000000 0.33239309 0.00000000)
		(-0.10000000 0.33282472 0.00000000)
		(-0.08162011 0.33280721 0.00000000)
		(-0.06324022 0.33389129 0.00000000)
		(-0.04486034 0.33607693 0.00000000)
		(-0.02648045 0.33936416 0.00000000)
		(-0.00810056 0.34375296 0.00000000)
		(0.01027933 0.34924334 0.00000000)
		(0.02865922 0.35583530 0.00000000)
		(0.04703911 0.36352883 0.00000000)
		(0.06541899 0.37232394 0.00000000)
		(0.08379888 0.38222063 0.00000000)
		(0.10055866 0.39301056 0.00000000)
		(0.11731844 0.40414180 0.00000000)
		(0.13407821 0.41557885 0.00000000)
		(0.15083799 0.42728521 0.00000000)
		(0.16759777 0.43922354 0.00000000)
		(0.18435754 0.45135576 0.00000000)
		(0.20111732 0.46364316 0.00000000)
		(0.21787709 0.47604654 0.00000000)
		(0.23463687 0.48852634 0.00000000)
		(0.25139665 0.50104274 0.00000000)
		(0.26815642 0.51355581 0.00000000)
		(0.28491620 0.52602564 0.00000000)
		(0.30167598 0.53841244 0.00000000)
		(0.31843575 0.55067671 0.00000000)
		(0.33519553 0.56277930 0.00000000)
		(0.35195531 0.57468162 0.00000000)
		(0.36871508 0.58634570 0.00000000)
		(0.38547486 0.59773432 0.00000000)
		(0.40223464 0.60881115 0.00000000)
		(0.41899441 0.61954086 0.00000000)
		(0.43575419 0.62988922 0.00000000)
		(0.45251397 0.63982321 0.00000000)
		(0.46927374 0.64931114 0.00000000)
		(0.48603352 0.65832275 0.00000000)
		(0.50279330 0.66682929 0.00000000)
		(0.51955307 0.67480361 0.00000000)
		(0.53631285 0.68222029 0.00000000)
		(0.55307263 0.68905566 0.00000000)
		(0.56983240 0.69528791 0.00000000)
		(0.58659218 0.70089716 0.00000000)
		(0.60335196 0.70586552 0.00000000)
		(0.62011173 0.71017715 0.00000000)
		(0.63687151 0.71381827 0.00000000)
		(0.65363128 0.71677728 0.00000000)
		(0.67039106 0.71904474 0.00000000)
		(0.68715084 0.72061342 0.00000000)
		(0.70391061 0.72147831 0.00000000)
		(0.72067039 0.72163665 0.00000000)
		(0.73743017 0.72108793 0.00000000)
		(0.75418994 0.71983391 0.00000000)
		(0.77094972 0.71787859 0.00000000)
		(0.78770950 0.71522821 0.00000000)
		(0.80446927 0.71189121 0.00000000)
		(0.82122905 0.70787825 0.00000000)
		(0.83798883 0.70320213 0.00000000)
		(0.85474860 0.69787776 0.00000000)
		(0.87150838 0.69192213 0.00000000)
		(0.88826816 0.68535425 0.00000000)
		(0.90502793 0.67819505 0.00000000)
		(0.92178771 0.67046739 0.00000000)
		(0.93854749 0.66219591 0.00000000)
		(0.95530726 0.65340700 0.00000000)
		(0.97206704 0.64412871 0.00000000)
		(0.98882682 0.63439062 0.00000000)
		(1.00558659 0.62422380 0.00000000)
		(1.02234637 0.61366069 0.00000000)
		(1.03910615 0.60273499 0.00000000)
		(1.05586592 0.59148154 0.00000000)
		(1.07262570 0.57993626 0.00000000)
		(1.08938547 0.56813597 0.00000000)
		(1.10614525 0.55611832 0.00000000)
		(1.12290503 0.54392163 0.00000000)
		(1.13966480 0.53158484 0.00000000)
		(1.15642458 0.51914728 0.00000000)
		(1.17318436 0.50664864 0.00000000)
		(1.18994413 0.49412879 0.00000000)
		(1.20670391 0.48162767 0.00000000)
		(1.22346369 0.46918516 0.00000000)
		(1.24022346 0.45684095 0.00000000)
		(1.25698324 0.44463443 0.00000000)
		(1.27374302 0.43260453 0.00000000)
		(1.29050279 0.42078964 0.00000000)
		(1.30726257 0.40922743 0.00000000)
		(1.32402235 0.39795481 0.00000000)
		(1.34078212 0.38700772 0.00000000)
		(1.35754190 0.37642110 0.00000000)
		(1.37430168 0.36622871 0.00000000)
		(1.39106145 0.35646307 0.00000000)
		(1.40782123 0.34715533 0.00000000)
		(1.42458101 0.33833520 0.00000000)
		(1.44134078 0.33003079 0.00000000)
		(1.45810056 0.32226862 0.00000000)
		(1.47486034 0.31507343 0.00000000)
		(1.49162011 0.30846819 0.00000000)
		(1.50837989 0.30247396 0.00000000)
		(1.52513966 0.29710986 0.00000000)
		(1.54189944 0.29239302 0.00000000)
		(1.55865922 0.28833848 0.00000000)
		(1.57541899 0.28495916 0.00000000)
		(1.59217877 0.28226586 0.00000000)
		(1.60893855 0.28026716 0.00000000)
		(1.62569832 0.27896945 0.00000000)
		(1.64245810 0.27837685 0.00000000)
		(1.65921788 0.27849126 0.00000000)
		(1.67597765 0.27931232 0.00000000)
		(1.69273743 0.28083740 0.00000000)
		(1.70949721 0.28306165 0.00000000)
		(1.72625698 0.28597796 0.00000000)
		(1.74301676 0.28957704 0.00000000)
		(1.75977654 0.29384739 0.00000000)
		(1.77653631 0.29877540 0.00000000)
		(1.79329609 0.30434535 0.00000000)
		(1.81005587 0.31053946 0.00000000)
		(1.82681564 0.31733799 0.00000000)
		(1.84357542 0.32471923 0.00000000)
		(1.86033520 0.33265964 0.00000000)
		(1.87709497 0.34113389 0.00000000)
		(1.89385475 0.35011495 0.00000000)
		(1.91061453 0.35957416 0.00000000)
		(1.92737430 0.36948136 0.00000000)
		(1.94413408 0.37980493 0.00000000)
		(1.96089385 0.39051193 0.00000000)
		(1.97765363 0.40156822 0.00000000)
		(1.99441341 0.41293853 0.00000000)
		(2.01117318 0.42458657 0.00000000)
		(2.02793296 0.43647519 0.00000000)
		(2.04469274 0.44856646 0.00000000)
		(2.06145251 0.46082182 0.00000000)
		(2.07821229 0.47320216 0.00000000)
		(2.09497207 0.48566799 0.00000000)
		(2.11173184 0.49817954 0.00000000)
		(2.12849162 0.51069690 0.00000000)
		(2.14525140 0.52318013 0.00000000)
		(2.16201117 0.53558941 0.00000000)
		(2.17877095 0.54788516 0.00000000)
		(2.19553073 0.56002815 0.00000000)
		(2.21229050 0.57197964 0.00000000)
		(2.22905028 0.58370151 0.00000000)
		(2.24581006 0.59515635 0.00000000)
		(2.26256983 0.60630763 0.00000000)
		(2.27932961 0.61711978 0.00000000)
		(2.29608939 0.62755829 0.00000000)
		(2.31284916 0.63758988 0.00000000)
		(2.32960894 0.64718253 0.00000000)
		(2.34636872 0.65630565 0.00000000)
		(2.36312849 0.66493013 0.00000000)
		(2.37988827 0.67302846 0.00000000)
		(2.39664804 0.68057480 0.00000000)
		(2.41340782 0.68754508 0.00000000)
		(2.43016760 0.69391707 0.00000000)
		(2.44692737 0.69967043 0.00000000)
		(2.46368715 0.70478682 0.00000000)
		(2.48044693 0.70924990 0.00000000)
		(2.49720670 0.71304545 0.00000000)
		(2.51396648 0.71616134 0.00000000)
		(2.53072626 0.71858766 0.00000000)