/*--------------------------------*- C++ -*----------------------------------*\\
/*--------------------------------*- C++ -*----------------------------------*\\
| =========                 |                                                 |
| \\\\      /  F ield         | OpenFOAM: The Open Source CFD Toolbox           |
|  \\\\    /   O peration     | Version:  v2012                                 |
|   \\\\  /    A nd           | Website:  www.openfoam.com                      |
|    \\\\/     M anipulation  |                                                 |
\\*---------------------------------------------------------------------------*/
FoamFile
{
    version     2.0;
    format      ascii;
    class       dictionary;
    object      blockMeshDict;
}
// * * * * * * * * * * * * * * * * * * * * * * * * * * * * * * * * * * * * * //

scale   0.01;

xmin -1;
xmax 5;
ymin 0;
ymax 0.5;
zmin 0;
zmax 0.1;

vertices
(
    (-1.00000000 -0.14433573 0.00000000)
    (4.00000000 0.08796989 0.00000000)
    (4.00000000 0.58796989 0.00000000)
    (-1.00000000 0.35566427 0.00000000)
    (-1.00000000 -0.14433573 0.10000000)
    (4.00000000 0.08796989 0.10000000)
    (4.00000000 0.58796989 0.10000000)
    (-1.00000000 0.35566427 0.10000000)
);

blocks
(
    hex (0 1 2 3 4 5 6 7) (200 20 1) simpleGrading (1 1 1)
);

edges
(
	polyLine 0 1
	(
		(-1.00000000 -0.14433573 0.00000000)
		(-0.98000000 -0.14433573 0.00000000)
		(-0.96000000 -0.14433573 0.00000000)
		(-0.94000000 -0.14433573 0.00000000)
		(-0.92000000 -0.14433573 0.00000000)
		(-0.90000000 -0.14433573 0.00000000)
		(-0.88000000 -0.14433573 0.00000000)
		(-0.86000000 -0.14433573 0.00000000)
		(-0.84000000 -0.14433573 0.00000000)
		(-0.82000000 -0.14433573 0.00000000)
		(-0.80000000 -0.14433573 0.00000000)
		(-0.78000000 -0.14433573 0.00000000)
		(-0.76000000 -0.14433573 0.00000000)
		(-0.74000000 -0.14433573 0.00000000)
		(-0.72000000 -0.14433573 0.00000000)
		(-0.70000000 -0.14433573 0.00000000)
		(-0.68000000 -0.14433573 0.00000000)
		(-0.66000000 -0.14433573 0.00000000)
		(-0.64000000 -0.14433573 0.00000000)
		(-0.62000000 -0.14433573 0.00000000)
		(-0.60000000 -0.14433573 0.00000000)
		(-0.58000000 -0.14433573 0.00000000)
		(-0.56000000 -0.14433573 0.00000000)
		(-0.54000000 -0.14433573 0.00000000)
		(-0.52000000 -0.14433573 0.00000000)
		(-0.50000000 -0.14433573 0.00000000)
		(-0.48000000 -0.14433573 0.00000000)
		(-0.46000000 -0.14433573 0.00000000)
		(-0.44000000 -0.14433573 0.00000000)
		(-0.42000000 -0.14433573 0.00000000)
		(-0.40000000 -0.14433573 0.00000000)
		(-0.38000000 -0.14433573 0.00000000)
		(-0.36000000 -0.14433573 0.00000000)
		(-0.34000000 -0.14433573 0.00000000)
		(-0.32000000 -0.14433573 0.00000000)
		(-0.30000000 -0.14433573 0.00000000)
		(-0.28000000 -0.14433573 0.00000000)
		(-0.26000000 -0.14433573 0.00000000)
		(-0.24000000 -0.14433573 0.00000000)
		(-0.22000000 -0.14433573 0.00000000)
		(-0.20000000 -0.14433573 0.00000000)
		(-0.18000000 -0.14433573 0.00000000)
		(-0.16000000 -0.14433573 0.00000000)
		(-0.14000000 -0.14433573 0.00000000)
		(-0.12000000 -0.14433573 0.00000000)
		(-0.10000000 -0.14433573 0.00000000)
		(-0.08162011 -0.14505731 0.00000000)
		(-0.06324022 -0.14722203 0.00000000)
		(-0.04486034 -0.15082991 0.00000000)
		(-0.02648045 -0.15588093 0.00000000)
		(-0.00810056 -0.16237511 0.00000000)
		(0.01027933 -0.17031244 0.00000000)
		(0.02865922 -0.17969292 0.00000000)
		(0.04703911 -0.19051655 0.00000000)
		(0.06541899 -0.20278333 0.00000000)
		(0.08379888 -0.21649326 0.00000000)
		(0.10055866 -0.22646622 0.00000000)
		(0.11731844 -0.23475263 0.00000000)
		(0.13407821 -0.24129078 0.00000000)
		(0.15083799 -0.24603196 0.00000000)
		(0.16759777 -0.24894087 0.00000000)
		(0.18435754 -0.24999586 0.00000000)
		(0.20111732 -0.24918905 0.00000000)
		(0.21787709 -0.24652646 0.00000000)
		(0.23463687 -0.24202793 0.00000000)
		(0.25139665 -0.23572694 0.00000000)
		(0.26815642 -0.22767043 0.00000000)
		(0.28491620 -0.21791839 0.00000000)
		(0.30167598 -0.20654345 0.00000000)
		(0.31843575 -0.19363033 0.00000000)
		(0.33519553 -0.17927519 0.00000000)
		(0.35195531 -0.16358493 0.00000000)
		(0.36871508 -0.14667642 0.00000000)
		(0.38547486 -0.12867556 0.00000000)
		(0.40223464 -0.10971642 0.00000000)
		(0.41899441 -0.08994019 0.00000000)
		(0.43575419 -0.06949416 0.00000000)
		(0.45251397 -0.04853058 0.00000000)
		(0.46927374 -0.02720557 0.00000000)
		(0.48603352 -0.00567797 0.00000000)
		(0.50279330 0.01589193 0.00000000)
		(0.51955307 0.03734347 0.00000000)
		(0.53631285 0.05851691 0.00000000)
		(0.55307263 0.07925455 0.00000000)
		(0.56983240 0.09940196 0.00000000)
		(0.58659218 0.11880910 0.00000000)
		(0.60335196 0.13733143 0.00000000)
		(0.62011173 0.15483102 0.00000000)
		(0.63687151 0.17117754 0.00000000)
		(0.65363128 0.18624925 0.00000000)
		(0.67039106 0.19993392 0.00000000)
		(0.68715084 0.21212961 0.00000000)
		(0.70391061 0.22274552 0.00000000)
		(0.72067039 0.23170259 0.00000000)
		(0.73743017 0.23893409 0.00000000)
		(0.75418994 0.24438619 0.00000000)
		(0.77094972 0.24801828 0.00000000)
		(0.78770950 0.24980331 0.00000000)
		(0.80446927 0.24972798 0.00000000)
		(0.82122905 0.24779285 0.00000000)
		(0.83798883 0.24401235 0.00000000)
		(0.85474860 0.23841462 0.00000000)
		(0.87150838 0.23104134 0.00000000)
		(0.88826816 0.22194744 0.00000000)
		(0.90502793 0.21120063 0.00000000)
		(0.92178771 0.19888096 0.00000000)
		(0.93854749 0.18508016 0.00000000)
		(0.95530726 0.16990101 0.00000000)
		(0.97206704 0.15345657 0.00000000)
		(0.98882682 0.13586929 0.00000000)
		(1.00558659 0.11727016 0.00000000)
		(1.02234637 0.09779768 0.00000000)
		(1.03910615 0.07759688 0.00000000)
		(1.05586592 0.05681819 0.00000000)
		(1.07262570 0.03561636 0.00000000)
		(1.08938547 0.01414929 0.00000000)
		(1.10614525 -0.00742316 0.00000000)
		(1.12290503 -0.02894033 0.00000000)
		(1.13966480 -0.05024197 0.00000000)
		(1.15642458 -0.07116944 0.00000000)
		(1.17318436 -0.09156689 0.00000000)
		(1.18994413 -0.11128243 0.00000000)
		(1.20670391 -0.13016921 0.00000000)
		(1.22346369 -0.14808658 0.00000000)
		(1.24022346 -0.16490111 0.00000000)
		(1.25698324 -0.18048758 0.00000000)
		(1.27374302 -0.19472990 0.00000000)
		(1.29050279 -0.20752202 0.00000000)
		(1.30726257 -0.21876866 0.00000000)
		(1.32402235 -0.22838607 0.00000000)
		(1.34078212 -0.23630263 0.00000000)
		(1.35754190 -0.24245938 0.00000000)
		(1.37430168 -0.24681046 0.00000000)
		(1.39106145 -0.24932348 0.00000000)
		(1.40782123 -0.24997971 0.00000000)
		(1.42458101 -0.24877428 0.00000000)
		(1.44134078 -0.24571615 0.00000000)
		(1.45810056 -0.24082811 0.00000000)
		(1.47486034 -0.23414656 0.00000000)
		(1.49162011 -0.22572125 0.00000000)
		(1.50837989 -0.21561493 0.00000000)
		(1.52513966 -0.20390286 0.00000000)
		(1.54189944 -0.19067228 0.00000000)
		(1.55865922 -0.17602170 0.00000000)
		(1.57541899 -0.16006025 0.00000000)
		(1.59217877 -0.14290678 0.00000000)
		(1.60893855 -0.12468904 0.00000000)
		(1.62569832 -0.10554271 0.00000000)
		(1.64245810 -0.08561037 0.00000000)
		(1.65921788 -0.06504047 0.00000000)
		(1.67597765 -0.04398619 0.00000000)
		(1.69273743 -0.02260434 0.00000000)
		(1.70949721 -0.00105414 0.00000000)
		(1.72625698 0.02050390 0.00000000)
		(1.74301676 0.04190925 0.00000000)
		(1.75977654 0.06300248 0.00000000)
		(1.77653631 0.08362652 0.00000000)
		(1.79329609 0.10362777 0.00000000)
		(1.81005587 0.12285728 0.00000000)
		(1.82681564 0.14117183 0.00000000)
		(1.84357542 0.15843504 0.00000000)
		(1.86033520 0.17451833 0.00000000)
		(1.87709497 0.18930194 0.00000000)
		(1.89385475 0.20267577 0.00000000)
		(1.91061453 0.21454021 0.00000000)
		(1.92737430 0.22480691 0.00000000)
		(1.94413408 0.23339941 0.00000000)
		(1.96089385 0.24025373 0.00000000)
		(1.97765363 0.24531880 0.00000000)
		(1.99441341 0.24855692 0.00000000)
		(2.01117318 0.24994396 0.00000000)
		(2.02793296 0.24946961 0.00000000)
		(2.04469274 0.24713738 0.00000000)
		(2.06145251 0.24296465 0.00000000)
		(2.07821229 0.23698250 0.00000000)
		(2.09497207 0.22923547 0.00000000)
		(2.11173184 0.21978126 0.00000000)
		(2.12849162 0.20869028 0.00000000)
		(2.14525140 0.19604512 0.00000000)
		(2.16201117 0.18193996 0.00000000)
		(2.17877095 0.16647985 0.00000000)
		(2.19553073 0.14977991 0.00000000)
		(2.21229050 0.13196452 0.00000000)
		(2.22905028 0.11316635 0.00000000)
		(2.24581006 0.09352540 0.00000000)
		(2.26256983 0.07318795 0.00000000)
		(2.27932961 0.05230544 0.00000000)
		(2.29608939 0.03103339 0.00000000)
		(2.31284916 0.00953024 0.00000000)
		(2.32960894 -0.01204389 0.00000000)
		(2.34636872 -0.03352833 0.00000000)
		(2.36312849 -0.05476307 0.00000000)
		(2.37988827 -0.07558998 0.00000000)
		(2.39664804 -0.09585395 0.00000000)
		(2.41340782 -0.11540406 0.00000000)
		(2.43016760 -0.13409473 0.00000000)
		(2.44692737 -0.15178676 0.00000000)
		(2.46368715 -0.16834839 0.00000000)
		(2.48044693 -0.18365628 0.00000000)
		(2.49720670 -0.19759644 0.00000000)
		(2.51396648 -0.21006503 0.00000000)
		(2.53072626 -0.22096922 0.00000000)
		(2.54748603 -0.23022778 0.00000000)
		(2.56424581 -0.23777178 0.00000000)
		(2.58100559 -0.24354502 0.00000000)
		(2.59776536 -0.24750451 0.00000000)
		(2.61452514 -0.24962077 0.00000000)
		(2.63128492 -0.24987804 0.00000000)
		(2.64804469 -0.24827439 0.00000000)
		(2.66480447 -0.24482177 0.00000000)
		(2.68156425 -0.23954590 0.00000000)
		(2.69832402 -0.23248606 0.00000000)
		(2.71508380 -0.22369484 0.00000000)
		(2.73184358 -0.21323769 0.00000000)
		(2.74860335 -0.20119251 0.00000000)
		(2.76536313 -0.18764899 0.00000000)
		(2.78212291 -0.17270799 0.00000000)
		(2.79888268 -0.15648079 0.00000000)
		(2.81564246 -0.13908824 0.00000000)
		(2.83240223 -0.12065985 0.00000000)
		(2.84916201 -0.10133288 0.00000000)
		(2.86592179 -0.08125125 0.00000000)
		(2.88268156 -0.06056453 0.00000000)
		(2.89944134 -0.03942676 0.00000000)
		(2.91620112 -0.01799537 0.00000000)
		(2.93296089 0.00357004 0.00000000)
		(2.95166480 0.01960601 0.00000000)
		(2.97036872 0.03395398 0.00000000)
		(2.98907263 0.04661396 0.00000000)
		(3.00777654 0.05758594 0.00000000)
		(3.02648045 0.06686992 0.00000000)
		(3.04518436 0.07446591 0.00000000)
		(3.06388827 0.08037390 0.00000000)
		(3.08259218 0.08459389 0.00000000)
		(3.10129609 0.08712589 0.00000000)
		(3.12000000 0.08796989 0.00000000)
		(3.14000000 0.08796989 0.00000000)
		(3.16000000 0.08796989 0.00000000)
		(3.18000000 0.08796989 0.00000000)
		(3.20000000 0.08796989 0.00000000)
		(3.22000000 0.08796989 0.00000000)
		(3.24000000 0.08796989 0.00000000)
		(3.26000000 0.08796989 0.00000000)
		(3.28000000 0.08796989 0.00000000)
		(3.30000000 0.08796989 0.00000000)
		(3.32000000 0.08796989 0.00000000)
		(3.34000000 0.08796989 0.00000000)
		(3.36000000 0.08796989 0.00000000)
		(3.38000000 0.08796989 0.00000000)
		(3.40000000 0.08796989 0.00000000)
		(3.42000000 0.08796989 0.00000000)
		(3.44000000 0.08796989 0.00000000)
		(3.46000000 0.08796989 0.00000000)
		(3.48000000 0.08796989 0.00000000)
		(3.50000000 0.08796989 0.00000000)
		(3.52000000 0.08796989 0.00000000)
		(3.54000000 0.08796989 0.00000000)
		(3.56000000 0.08796989 0.00000000)
		(3.58000000 0.08796989 0.00000000)
		(3.60000000 0.08796989 0.00000000)
		(3.62000000 0.08796989 0.00000000)
		(3.64000000 0.08796989 0.00000000)
		(3.66000000 0.08796989 0.00000000)
		(3.68000000 0.08796989 0.00000000)
		(3.70000000 0.08796989 0.00000000)
		(3.72000000 0.08796989 0.00000000)
		(3.74000000 0.08796989 0.00000000)
		(3.76000000 0.08796989 0.00000000)
		(3.78000000 0.08796989 0.00000000)
		(3.80000000 0.08796989 0.00000000)
		(3.82000000 0.08796989 0.00000000)
		(3.84000000 0.08796989 0.00000000)
		(3.86000000 0.08796989 0.00000000)
		(3.88000000 0.08796989 0.00000000)
		(3.90000000 0.08796989 0.00000000)
		(3.92000000 0.08796989 0.00000000)
		(3.94000000 0.08796989 0.00000000)
		(3.96000000 0.08796989 0.00000000)
		(3.98000000 0.08796989 0.00000000)
		(4.00000000 0.08796989 0.00000000)
	)
	polyLine 4 5
	(
		(-1.00000000 -0.14433573 0.10000000)
		(-0.98000000 -0.14433573 0.10000000)
		(-0.96000000 -0.14433573 0.10000000)
		(-0.94000000 -0.14433573 0.10000000)
		(-0.92000000 -0.14433573 0.10000000)
		(-0.90000000 -0.14433573 0.10000000)
		(-0.88000000 -0.14433573 0.10000000)
		(-0.86000000 -0.14433573 0.10000000)
		(-0.84000000 -0.14433573 0.10000000)
		(-0.82000000 -0.14433573 0.10000000)
		(-0.80000000 -0.14433573 0.10000000)
		(-0.78000000 -0.14433573 0.10000000)
		(-0.76000000 -0.14433573 0.10000000)
		(-0.74000000 -0.14433573 0.10000000)
		(-0.72000000 -0.14433573 0.10000000)
		(-0.70000000 -0.14433573 0.10000000)
		(-0.68000000 -0.14433573 0.10000000)
		(-0.66000000 -0.14433573 0.10000000)
		(-0.64000000 -0.14433573 0.10000000)
		(-0.62000000 -0.14433573 0.10000000)
		(-0.60000000 -0.14433573 0.10000000)
		(-0.58000000 -0.14433573 0.10000000)
		(-0.56000000 -0.14433573 0.10000000)
		(-0.54000000 -0.14433573 0.10000000)
		(-0.52000000 -0.14433573 0.10000000)
		(-0.50000000 -0.14433573 0.10000000)
		(-0.48000000 -0.14433573 0.10000000)
		(-0.46000000 -0.14433573 0.10000000)
		(-0.44000000 -0.14433573 0.10000000)
		(-0.42000000 -0.14433573 0.10000000)
		(-0.40000000 -0.14433573 0.10000000)
		(-0.38000000 -0.14433573 0.10000000)
		(-0.36000000 -0.14433573 0.10000000)
		(-0.34000000 -0.14433573 0.10000000)
		(-0.32000000 -0.14433573 0.10000000)
		(-0.30000000 -0.14433573 0.10000000)
		(-0.28000000 -0.14433573 0.10000000)
		(-0.26000000 -0.14433573 0.10000000)
		(-0.24000000 -0.14433573 0.10000000)
		(-0.22000000 -0.14433573 0.10000000)
		(-0.20000000 -0.14433573 0.10000000)
		(-0.18000000 -0.14433573 0.10000000)
		(-0.16000000 -0.14433573 0.10000000)
		(-0.14000000 -0.14433573 0.10000000)
		(-0.12000000 -0.14433573 0.10000000)
		(-0.10000000 -0.14433573 0.10000000)
		(-0.08162011 -0.14505731 0.10000000)
		(-0.06324022 -0.14722203 0.10000000)
		(-0.04486034 -0.15082991 0.10000000)
		(-0.02648045 -0.15588093 0.10000000)
		(-0.00810056 -0.16237511 0.10000000)
		(0.01027933 -0.17031244 0.10000000)
		(0.02865922 -0.17969292 0.10000000)
		(0.04703911 -0.19051655 0.10000000)
		(0.06541899 -0.20278333 0.10000000)
		(0.08379888 -0.21649326 0.10000000)
		(0.10055866 -0.22646622 0.10000000)
		(0.11731844 -0.23475263 0.10000000)
		(0.13407821 -0.24129078 0.10000000)
		(0.15083799 -0.24603196 0.10000000)
		(0.16759777 -0.24894087 0.10000000)
		(0.18435754 -0.24999586 0.10000000)
		(0.20111732 -0.24918905 0.10000000)
		(0.21787709 -0.24652646 0.10000000)
		(0.23463687 -0.24202793 0.10000000)
		(0.25139665 -0.23572694 0.10000000)
		(0.26815642 -0.22767043 0.10000000)
		(0.28491620 -0.21791839 0.10000000)
		(0.30167598 -0.20654345 0.10000000)
		(0.31843575 -0.19363033 0.10000000)
		(0.33519553 -0.17927519 0.10000000)
		(0.35195531 -0.16358493 0.10000000)
		(0.36871508 -0.14667642 0.10000000)
		(0.38547486 -0.12867556 0.10000000)
		(0.40223464 -0.10971642 0.10000000)
		(0.41899441 -0.08994019 0.10000000)
		(0.43575419 -0.06949416 0.10000000)
		(0.45251397 -0.04853058 0.10000000)
		(0.46927374 -0.02720557 0.10000000)
		(0.48603352 -0.00567797 0.10000000)
		(0.50279330 0.01589193 0.10000000)
		(0.51955307 0.03734347 0.10000000)
		(0.53631285 0.05851691 0.10000000)
		(0.55307263 0.07925455 0.10000000)
		(0.56983240 0.09940196 0.10000000)
		(0.58659218 0.11880910 0.10000000)
		(0.60335196 0.13733143 0.10000000)
		(0.62011173 0.15483102 0.10000000)
		(0.63687151 0.17117754 0.10000000)
		(0.65363128 0.18624925 0.10000000)
		(0.67039106 0.19993392 0.10000000)
		(0.68715084 0.21212961 0.10000000)
		(0.70391061 0.22274552 0.10000000)
		(0.72067039 0.23170259 0.10000000)
		(0.73743017 0.23893409 0.10000000)
		(0.75418994 0.24438619 0.10000000)
		(0.77094972 0.24801828 0.10000000)
		(0.78770950 0.24980331 0.10000000)
		(0.80446927 0.24972798 0.10000000)
		(0.82122905 0.24779285 0.10000000)
		(0.83798883 0.24401235 0.10000000)
		(0.85474860 0.23841462 0.10000000)
		(0.87150838 0.23104134 0.10000000)
		(0.88826816 0.22194744 0.10000000)
		(0.90502793 0.21120063 0.10000000)
		(0.92178771 0.19888096 0.10000000)
		(0.93854749 0.18508016 0.10000000)
		(0.95530726 0.16990101 0.10000000)
		(0.97206704 0.15345657 0.10000000)
		(0.98882682 0.13586929 0.10000000)
		(1.00558659 0.11727016 0.10000000)
		(1.02234637 0.09779768 0.10000000)
		(1.03910615 0.07759688 0.10000000)
		(1.05586592 0.05681819 0.10000000)
		(1.07262570 0.03561636 0.10000000)
		(1.08938547 0.01414929 0.10000000)
		(1.10614525 -0.00742316 0.10000000)
		(1.12290503 -0.02894033 0.10000000)
		(1.13966480 -0.05024197 0.10000000)
		(1.15642458 -0.07116944 0.10000000)
		(1.17318436 -0.09156689 0.10000000)
		(1.18994413 -0.11128243 0.10000000)
		(1.20670391 -0.13016921 0.10000000)
		(1.22346369 -0.14808658 0.10000000)
		(1.24022346 -0.16490111 0.10000000)
		(1.25698324 -0.18048758 0.10000000)
		(1.27374302 -0.19472990 0.10000000)
		(1.29050279 -0.20752202 0.10000000)
		(1.30726257 -0.21876866 0.10000000)
		(1.32402235 -0.22838607 0.10000000)
		(1.34078212 -0.23630263 0.10000000)
		(1.35754190 -0.24245938 0.10000000)
		(1.37430168 -0.24681046 0.10000000)
		(1.39106145 -0.24932348 0.10000000)
		(1.40782123 -0.24997971 0.10000000)
		(1.42458101 -0.24877428 0.10000000)
		(1.44134078 -0.24571615 0.10000000)
		(1.45810056 -0.24082811 0.10000000)
		(1.47486034 -0.23414656 0.10000000)
		(1.49162011 -0.22572125 0.10000000)
		(1.50837989 -0.21561493 0.10000000)
		(1.52513966 -0.20390286 0.10000000)
		(1.54189944 -0.19067228 0.10000000)
		(1.55865922 -0.17602170 0.10000000)
		(1.57541899 -0.16006025 0.10000000)
		(1.59217877 -0.14290678 0.10000000)
		(1.60893855 -0.12468904 0.10000000)
		(1.62569832 -0.10554271 0.10000000)
		(1.64245810 -0.08561037 0.10000000)
		(1.65921788 -0.06504047 0.10000000)
		(1.67597765 -0.04398619 0.10000000)
		(1.69273743 -0.02260434 0.10000000)
		(1.70949721 -0.00105414 0.10000000)
		(1.72625698 0.02050390 0.10000000)
		(1.74301676 0.04190925 0.10000000)
		(1.75977654 0.06300248 0.10000000)
		(1.77653631 0.08362652 0.10000000)
		(1.79329609 0.10362777 0.10000000)
		(1.81005587 0.12285728 0.10000000)
		(1.82681564 0.14117183 0.10000000)
		(1.84357542 0.15843504 0.10000000)
		(1.86033520 0.17451833 0.10000000)
		(1.87709497 0.18930194 0.10000000)
		(1.89385475 0.20267577 0.10000000)
		(1.91061453 0.21454021 0.10000000)
		(1.92737430 0.22480691 0.10000000)
		(1.94413408 0.23339941 0.10000000)
		(1.96089385 0.24025373 0.10000000)
		(1.97765363 0.24531880 0.10000000)
		(1.99441341 0.24855692 0.10000000)
		(2.01117318 0.24994396 0.10000000)
		(2.02793296 0.24946961 0.10000000)
		(2.04469274 0.24713738 0.10000000)
		(2.06145251 0.24296465 0.10000000)
		(2.07821229 0.23698250 0.10000000)
		(2.09497207 0.22923547 0.10000000)
		(2.11173184 0.21978126 0.10000000)
		(2.12849162 0.20869028 0.10000000)
		(2.14525140 0.19604512 0.10000000)
		(2.16201117 0.18193996 0.10000000)
		(2.17877095 0.16647985 0.10000000)
		(2.19553073 0.14977991 0.10000000)
		(2.21229050 0.13196452 0.10000000)
		(2.22905028 0.11316635 0.10000000)
		(2.24581006 0.09352540 0.10000000)
		(2.26256983 0.07318795 0.10000000)
		(2.27932961 0.05230544 0.10000000)
		(2.29608939 0.03103339 0.10000000)
		(2.31284916 0.00953024 0.10000000)
		(2.32960894 -0.01204389 0.10000000)
		(2.34636872 -0.03352833 0.10000000)
		(2.36312849 -0.05476307 0.10000000)
		(2.37988827 -0.07558998 0.10000000)
		(2.39664804 -0.09585395 0.10000000)
		(2.41340782 -0.11540406 0.10000000)
		(2.43016760 -0.13409473 0.10000000)
		(2.44692737 -0.15178676 0.10000000)
		(2.46368715 -0.16834839 0.10000000)
		(2.48044693 -0.18365628 0.10000000)
		(2.49720670 -0.19759644 0.10000000)
		(2.51396648 -0.21006503 0.10000000)
		(2.53072626 -0.22096922 0.10000000)
		(2.54748603 -0.23022778 0.10000000)
		(2.56424581 -0.23777178 0.10000000)
		(2.58100559 -0.24354502 0.10000000)
		(2.59776536 -0.24750451 0.10000000)
		(2.61452514 -0.24962077 0.10000000)
		(2.63128492 -0.24987804 0.10000000)
		(2.64804469 -0.24827439 0.10000000)
		(2.66480447 -0.24482177 0.10000000)
		(2.68156425 -0.23954590 0.10000000)
		(2.69832402 -0.23248606 0.10000000)
		(2.71508380 -0.22369484 0.10000000)
		(2.73184358 -0.21323769 0.10000000)
		(2.74860335 -0.20119251 0.10000000)
		(2.76536313 -0.18764899 0.10000000)
		(2.78212291 -0.17270799 0.10000000)
		(2.79888268 -0.15648079 0.10000000)
		(2.81564246 -0.13908824 0.10000000)
		(2.83240223 -0.12065985 0.10000000)
		(2.84916201 -0.10133288 0.10000000)
		(2.86592179 -0.08125125 0.10000000)
		(2.88268156 -0.06056453 0.10000000)
		(2.89944134 -0.03942676 0.10000000)
		(2.91620112 -0.01799537 0.10000000)
		(2.93296089 0.00357004 0.10000000)
		(2.95166480 0.01960601 0.10000000)
		(2.97036872 0.03395398 0.10000000)
		(2.98907263 0.04661396 0.10000000)
		(3.00777654 0.05758594 0.10000000)
		(3.02648045 0.06686992 0.10000000)
		(3.04518436 0.07446591 0.10000000)
		(3.06388827 0.08037390 0.10000000)
		(3.08259218 0.08459389 0.10000000)
		(3.10129609 0.08712589 0.10000000)
		(3.12000000 0.08796989 0.10000000)
		(3.14000000 0.08796989 0.10000000)
		(3.16000000 0.08796989 0.10000000)
		(3.18000000 0.08796989 0.10000000)
		(3.20000000 0.08796989 0.10000000)
		(3.22000000 0.08796989 0.10000000)
		(3.24000000 0.08796989 0.10000000)
		(3.26000000 0.08796989 0.10000000)
		(3.28000000 0.08796989 0.10000000)
		(3.30000000 0.08796989 0.10000000)
		(3.32000000 0.08796989 0.10000000)
		(3.34000000 0.08796989 0.10000000)
		(3.36000000 0.08796989 0.10000000)
		(3.38000000 0.08796989 0.10000000)
		(3.40000000 0.08796989 0.10000000)
		(3.42000000 0.08796989 0.10000000)
		(3.44000000 0.08796989 0.10000000)
		(3.46000000 0.08796989 0.10000000)
		(3.48000000 0.08796989 0.10000000)
		(3.50000000 0.08796989 0.10000000)
		(3.52000000 0.08796989 0.10000000)
		(3.54000000 0.08796989 0.10000000)
		(3.56000000 0.08796989 0.10000000)
		(3.58000000 0.08796989 0.10000000)
		(3.60000000 0.08796989 0.10000000)
		(3.62000000 0.08796989 0.10000000)
		(3.64000000 0.08796989 0.10000000)
		(3.66000000 0.08796989 0.10000000)
		(3.68000000 0.08796989 0.10000000)
		(3.70000000 0.08796989 0.10000000)
		(3.72000000 0.08796989 0.10000000)
		(3.74000000 0.08796989 0.10000000)
		(3.76000000 0.08796989 0.10000000)
		(3.78000000 0.08796989 0.10000000)
		(3.80000000 0.08796989 0.10000000)
		(3.82000000 0.08796989 0.10000000)
		(3.84000000 0.08796989 0.10000000)
		(3.86000000 0.08796989 0.10000000)
		(3.88000000 0.08796989 0.10000000)
		(3.90000000 0.08796989 0.10000000)
		(3.92000000 0.08796989 0.10000000)
		(3.94000000 0.08796989 0.10000000)
		(3.96000000 0.08796989 0.10000000)
		(3.98000000 0.08796989 0.10000000)
		(4.00000000 0.08796989 0.10000000)
	)
	polyLine 3 2
	(
		(-1.00000000 0.35566427 0.00000000)
		(-0.98000000 0.35612126 0.00000000)
		(-0.96000000 0.35657826 0.00000000)
		(-0.94000000 0.35703525 0.00000000)
		(-0.92000000 0.35749224 0.00000000)
		(-0.90000000 0.35794924 0.00000000)
		(-0.88000000 0.35840623 0.00000000)
		(-0.86000000 0.35886322 0.00000000)
		(-0.84000000 0.35932022 0.00000000)
		(-0.82000000 0.35977721 0.00000000)
		(-0.80000000 0.36023420 0.00000000)
		(-0.78000000 0.36069120 0.00000000)
		(-0.76000000 0.36114819 0.00000000)
		(-0.74000000 0.36160518 0.00000000)
		(-0.72000000 0.36206218 0.00000000)
		(-0.70000000 0.36251917 0.00000000)
		(-0.68000000 0.36297616 0.00000000)
		(-0.66000000 0.36343316 0.00000000)
		(-0.64000000 0.36389015 0.00000000)
		(-0.62000000 0.36434714 0.00000000)
		(-0.60000000 0.36480414 0.00000000)
		(-0.58000000 0.36526113 0.00000000)
		(-0.56000000 0.36571812 0.00000000)
		(-0.54000000 0.36617512 0.00000000)
		(-0.52000000 0.36663211 0.00000000)
		(-0.50000000 0.36708910 0.00000000)
		(-0.48000000 0.36754610 0.00000000)
		(-0.46000000 0.36800309 0.00000000)
		(-0.44000000 0.36846008 0.00000000)
		(-0.42000000 0.36891708 0.00000000)
		(-0.40000000 0.36937407 0.00000000)
		(-0.38000000 0.36983106 0.00000000)
		(-0.36000000 0.37028806 0.00000000)
		(-0.34000000 0.37074505 0.00000000)
		(-0.32000000 0.37120204 0.00000000)
		(-0.30000000 0.37165904 0.00000000)
		(-0.28000000 0.37211603 0.00000000)
		(-0.26000000 0.37257302 0.00000000)
		(-0.24000000 0.37303002 0.00000000)
		(-0.22000000 0.37348701 0.00000000)
		(-0.20000000 0.37394400 0.00000000)
		(-0.18000000 0.37440099 0.00000000)
		(-0.16000000 0.37485799 0.00000000)
		(-0.14000000 0.37531498 0.00000000)
		(-0.12000000 0.37577197 0.00000000)
		(-0.10000000 0.37622897 0.00000000)
		(-0.08162011 0.37695650 0.00000000)
		(-0.06324022 0.37620826 0.00000000)
		(-0.04486034 0.37398423 0.00000000)
		(-0.02648045 0.37028442 0.00000000)
		(-0.00810056 0.36510883 0.00000000)
		(0.01027933 0.35845745 0.00000000)
		(0.02865922 0.35033030 0.00000000)
		(0.04703911 0.34072736 0.00000000)
		(0.06541899 0.32964865 0.00000000)
		(0.08379888 0.31709415 0.00000000)
		(0.10055866 0.30866842 0.00000000)
		(0.11731844 0.30166758 0.00000000)
		(0.13407821 0.29614379 0.00000000)
		(0.15083799 0.29213816 0.00000000)
		(0.16759777 0.28968055 0.00000000)
		(0.18435754 0.28878924 0.00000000)
		(0.20111732 0.28947088 0.00000000)
		(0.21787709 0.29172038 0.00000000)
		(0.23463687 0.29552100 0.00000000)
		(0.25139665 0.30084444 0.00000000)
		(0.26815642 0.30765104 0.00000000)
		(0.28491620 0.31589011 0.00000000)
		(0.30167598 0.32550031 0.00000000)
		(0.31843575 0.33641005 0.00000000)
		(0.33519553 0.34853809 0.00000000)
		(0.35195531 0.36179412 0.00000000)
		(0.36871508 0.37607939 0.00000000)
		(0.38547486 0.39128755 0.00000000)
		(0.40223464 0.40730531 0.00000000)
		(0.41899441 0.42401339 0.00000000)
		(0.43575419 0.44128737 0.00000000)
		(0.45251397 0.45899860 0.00000000)
		(0.46927374 0.47701518 0.00000000)
		(0.48603352 0.49520293 0.00000000)
		(0.50279330 0.51342641 0.00000000)
		(0.51955307 0.53154989 0.00000000)
		(0.53631285 0.54943842 0.00000000)
		(0.55307263 0.56695876 0.00000000)
		(0.56983240 0.58398045 0.00000000)
		(0.58659218 0.60037671 0.00000000)
		(0.60335196 0.61602543 0.00000000)
		(0.62011173 0.63081008 0.00000000)
		(0.63687151 0.64462055 0.00000000)
		(0.65363128 0.65735399 0.00000000)
		(0.67039106 0.66891558 0.00000000)
		(0.68715084 0.67921920 0.00000000)
		(0.70391061 0.68818813 0.00000000)
		(0.72067039 0.69575556 0.00000000)
		(0.73743017 0.70186515 0.00000000)
		(0.75418994 0.70647140 0.00000000)
		(0.77094972 0.70953999 0.00000000)
		(0.78770950 0.71104808 0.00000000)
		(0.80446927 0.71098444 0.00000000)
		(0.82122905 0.70934954 0.00000000)
		(0.83798883 0.70615555 0.00000000)
		(0.85474860 0.70142627 0.00000000)
		(0.87150838 0.69519691 0.00000000)
		(0.88826816 0.68751386 0.00000000)
		(0.90502793 0.67843434 0.00000000)
		(0.92178771 0.66802598 0.00000000)
		(0.93854749 0.65636627 0.00000000)
		(0.95530726 0.64354207 0.00000000)
		(0.97206704 0.62964887 0.00000000)
		(0.98882682 0.61479013 0.00000000)
		(1.00558659 0.59907652 0.00000000)
		(1.02234637 0.58262506 0.00000000)
		(1.03910615 0.56555827 0.00000000)
		(1.05586592 0.54800325 0.00000000)
		(1.07262570 0.53009073 0.00000000)
		(1.08938547 0.51195413 0.00000000)
		(1.10614525 0.49372849 0.00000000)
		(1.12290503 0.47554956 0.00000000)
		(1.13966480 0.45755272 0.00000000)
		(1.15642458 0.43987200 0.00000000)
		(1.17318436 0.42263906 0.00000000)
		(1.18994413 0.40598226 0.00000000)
		(1.20670391 0.39002563 0.00000000)
		(1.22346369 0.37488801 0.00000000)
		(1.24022346 0.36068214 0.00000000)
		(1.25698324 0.34751380 0.00000000)
		(1.27374302 0.33548107 0.00000000)
		(1.29050279 0.32467356 0.00000000)
		(1.30726257 0.31517175 0.00000000)
		(1.32402235 0.30704642 0.00000000)
		(1.34078212 0.30035806 0.00000000)
		(1.35754190 0.29515649 0.00000000)
		(1.37430168 0.29148044 0.00000000)
		(1.39106145 0.28935730 0.00000000)
		(1.40782123 0.28880288 0.00000000)
		(1.42458101 0.28982130 0.00000000)
		(1.44134078 0.29240498 0.00000000)
		(1.45810056 0.29653467 0.00000000)
		(1.47486034 0.30217963 0.00000000)
		(1.49162011 0.30929781 0.00000000)
		(1.50837989 0.31783621 0.00000000)
		(1.52513966 0.32773123 0.00000000)
		(1.54189944 0.33890918 0.00000000)
		(1.55865922 0.35128682 0.00000000)
		(1.57541899 0.36477197 0.00000000)
		(1.59217877 0.37926420 0.00000000)
		(1.60893855 0.39465559 0.00000000)
		(1.62569832 0.41083150 0.00000000)
		(1.64245810 0.42767148 0.00000000)
		(1.65921788 0.44505010 0.00000000)
		(1.67597765 0.46283796 0.00000000)
		(1.69273743 0.48090257 0.00000000)
		(1.70949721 0.49910940 0.00000000)
		(1.72625698 0.51732287 0.00000000)
		(1.74301676 0.53540732 0.00000000)
		(1.75977654 0.55322809 0.00000000)
		(1.77653631 0.57065246 0.00000000)
		(1.79329609 0.58755065 0.00000000)
		(1.81005587 0.60379684 0.00000000)
		(1.82681564 0.61927002 0.00000000)
		(1.84357542 0.63385496 0.00000000)
		(1.86033520 0.64744304 0.00000000)
		(1.87709497 0.65993308 0.00000000)
		(1.89385475 0.67123205 0.00000000)
		(1.91061453 0.68125581 0.00000000)
		(1.92737430 0.68992970 0.00000000)
		(1.94413408 0.69718914 0.00000000)
		(1.96089385 0.70298005 0.00000000)
		(1.97765363 0.70725932 0.00000000)
		(1.99441341 0.70999506 0.00000000)
		(2.01117318 0.71116692 0.00000000)
		(2.02793296 0.71076615 0.00000000)
		(2.04469274 0.70879576 0.00000000)
		(2.06145251 0.70527040 0.00000000)
		(2.07821229 0.70021633 0.00000000)
		(2.09497207 0.69367120 0.00000000)
		(2.11173184 0.68568375 0.00000000)
		(2.12849162 0.67631345 0.00000000)
		(2.14525140 0.66563010 0.00000000)
		(2.16201117 0.65371326 0.00000000)
		(2.17877095 0.64065167 0.00000000)
		(2.19553073 0.62654261 0.00000000)
		(2.21229050 0.61149115 0.00000000)
		(2.22905028 0.59560939 0.00000000)
		(2.24581006 0.57901560 0.00000000)
		(2.26256983 0.56183335 0.00000000)
		(2.27932961 0.54419062 0.00000000)
		(2.29608939 0.52621878 0.00000000)
		(2.31284916 0.50805169 0.00000000)
		(2.32960894 0.48982463 0.00000000)
		(2.34636872 0.47167335 0.00000000)
		(2.36312849 0.45373303 0.00000000)
		(2.37988827 0.43613727 0.00000000)
		(2.39664804 0.41901712 0.00000000)
		(2.41340782 0.40250006 0.00000000)
		(2.43016760 0.38670912 0.00000000)
		(2.44692737 0.37176189 0.00000000)
		(2.46368715 0.35776968 0.00000000)
		(2.48044693 0.34483670 0.00000000)
		(2.49720670 0.33305926 0.00000000)