/*--------------------------------*- C++ -*----------------------------------*\\
/*--------------------------------*- C++ -*----------------------------------*\\
| =========                 |                                                 |
| \\\\      /  F ield         | OpenFOAM: The Open Source CFD Toolbox           |
|  \\\\    /   O peration     | Version:  v2012                                 |
|   \\\\  /    A nd           | Website:  www.openfoam.com                      |
|    \\\\/     M anipulation  |                                                 |
\\*---------------------------------------------------------------------------*/
FoamFile
{
    version     2.0;
    format      ascii;
    class       dictionary;
    object      blockMeshDict;
}
// * * * * * * * * * * * * * * * * * * * * * * * * * * * * * * * * * * * * * //

scale   0.01;

xmin -1;
xmax 5;
ymin 0;
ymax 0.5;
zmin 0;
zmax 0.1;

vertices
(
    (-1.00000000 -0.14372271 0.00000000)
    (4.00000000 -0.07360899 0.00000000)
    (4.00000000 0.42639101 0.00000000)
    (-1.00000000 0.35627729 0.00000000)
    (-1.00000000 -0.14372271 0.10000000)
    (4.00000000 -0.07360899 0.10000000)
    (4.00000000 0.42639101 0.10000000)
    (-1.00000000 0.35627729 0.10000000)
);

blocks
(
    hex (0 1 2 3 4 5 6 7) (200 20 1) simpleGrading (1 1 1)
);

edges
(
	polyLine 0 1
	(
		(-1.00000000 -0.14372271 0.00000000)
		(-0.98000000 -0.14372271 0.00000000)
		(-0.96000000 -0.14372271 0.00000000)
		(-0.94000000 -0.14372271 0.00000000)
		(-0.92000000 -0.14372271 0.00000000)
		(-0.90000000 -0.14372271 0.00000000)
		(-0.88000000 -0.14372271 0.00000000)
		(-0.86000000 -0.14372271 0.00000000)
		(-0.84000000 -0.14372271 0.00000000)
		(-0.82000000 -0.14372271 0.00000000)
		(-0.80000000 -0.14372271 0.00000000)
		(-0.78000000 -0.14372271 0.00000000)
		(-0.76000000 -0.14372271 0.00000000)
		(-0.74000000 -0.14372271 0.00000000)
		(-0.72000000 -0.14372271 0.00000000)
		(-0.70000000 -0.14372271 0.00000000)
		(-0.68000000 -0.14372271 0.00000000)
		(-0.66000000 -0.14372271 0.00000000)
		(-0.64000000 -0.14372271 0.00000000)
		(-0.62000000 -0.14372271 0.00000000)
		(-0.60000000 -0.14372271 0.00000000)
		(-0.58000000 -0.14372271 0.00000000)
		(-0.56000000 -0.14372271 0.00000000)
		(-0.54000000 -0.14372271 0.00000000)
		(-0.52000000 -0.14372271 0.00000000)
		(-0.50000000 -0.14372271 0.00000000)
		(-0.48000000 -0.14372271 0.00000000)
		(-0.46000000 -0.14372271 0.00000000)
		(-0.44000000 -0.14372271 0.00000000)
		(-0.42000000 -0.14372271 0.00000000)
		(-0.40000000 -0.14372271 0.00000000)
		(-0.38000000 -0.14372271 0.00000000)
		(-0.36000000 -0.14372271 0.00000000)
		(-0.34000000 -0.14372271 0.00000000)
		(-0.32000000 -0.14372271 0.00000000)
		(-0.30000000 -0.14372271 0.00000000)
		(-0.28000000 -0.14372271 0.00000000)
		(-0.26000000 -0.14372271 0.00000000)
		(-0.24000000 -0.14372271 0.00000000)
		(-0.22000000 -0.14372271 0.00000000)
		(-0.20000000 -0.14372271 0.00000000)
		(-0.18000000 -0.14372271 0.00000000)
		(-0.16000000 -0.14372271 0.00000000)
		(-0.14000000 -0.14372271 0.00000000)
		(-0.12000000 -0.14372271 0.00000000)
		(-0.10000000 -0.14372271 0.00000000)
		(-0.08162011 -0.14308080 0.00000000)
		(-0.06324022 -0.14115507 0.00000000)
		(-0.04486034 -0.13794551 0.00000000)
		(-0.02648045 -0.13345213 0.00000000)
		(-0.00810056 -0.12767493 0.00000000)
		(0.01027933 -0.12061390 0.00000000)
		(0.02865922 -0.11226906 0.00000000)
		(0.04703911 -0.10264039 0.00000000)
		(0.06541899 -0.09172790 0.00000000)
		(0.08379888 -0.07953158 0.00000000)
		(0.10055866 -0.06572069 0.00000000)
		(0.11731844 -0.05169072 0.00000000)
		(0.13407821 -0.03748844 0.00000000)
		(0.15083799 -0.02316120 0.00000000)
		(0.16759777 -0.00875676 0.00000000)
		(0.18435754 0.00567687 0.00000000)
		(0.20111732 0.02009158 0.00000000)
		(0.21787709 0.03443932 0.00000000)
		(0.23463687 0.04867226 0.00000000)
		(0.25139665 0.06274295 0.00000000)
		(0.26815642 0.07660450 0.00000000)
		(0.28491620 0.09021069 0.00000000)
		(0.30167598 0.10351617 0.00000000)
		(0.31843575 0.11647659 0.00000000)
		(0.33519553 0.12904875 0.00000000)
		(0.35195531 0.14119074 0.00000000)
		(0.36871508 0.15286208 0.00000000)
		(0.38547486 0.16402387 0.00000000)
		(0.40223464 0.17463890 0.00000000)
		(0.41899441 0.18467179 0.00000000)
		(0.43575419 0.19408910 0.00000000)
		(0.45251397 0.20285942 0.00000000)
		(0.46927374 0.21095354 0.00000000)
		(0.48603352 0.21834446 0.00000000)
		(0.50279330 0.22500756 0.00000000)
		(0.51955307 0.23092061 0.00000000)
		(0.53631285 0.23606391 0.00000000)
		(0.55307263 0.24042031 0.00000000)
		(0.56983240 0.24397530 0.00000000)
		(0.58659218 0.24671702 0.00000000)
		(0.60335196 0.24863633 0.00000000)
		(0.62011173 0.24972683 0.00000000)
		(0.63687151 0.24998490 0.00000000)
		(0.65363128 0.24940966 0.00000000)
		(0.67039106 0.24800305 0.00000000)
		(0.68715084 0.24576973 0.00000000)
		(0.70391061 0.24271717 0.00000000)
		(0.72067039 0.23885554 0.00000000)
		(0.73743017 0.23419770 0.00000000)
		(0.75418994 0.22875919 0.00000000)
		(0.77094972 0.22255813 0.00000000)
		(0.78770950 0.21561519 0.00000000)
		(0.80446927 0.20795352 0.00000000)
		(0.82122905 0.19959866 0.00000000)
		(0.83798883 0.19057846 0.00000000)
		(0.85474860 0.18092298 0.00000000)
		(0.87150838 0.17066441 0.00000000)
		(0.88826816 0.15983695 0.00000000)
		(0.90502793 0.14847669 0.00000000)
		(0.92178771 0.13662150 0.00000000)
		(0.93854749 0.12431089 0.00000000)
		(0.95530726 0.11158590 0.00000000)
		(0.97206704 0.09848895 0.00000000)
		(0.98882682 0.08506370 0.00000000)
		(1.00558659 0.07135490 0.00000000)
		(1.02234637 0.05740824 0.00000000)
		(1.03910615 0.04327022 0.00000000)
		(1.05586592 0.02898796 0.00000000)
		(1.07262570 0.01460907 0.00000000)
		(1.08938547 0.00018148 0.00000000)
		(1.10614525 -0.01424671 0.00000000)
		(1.12290503 -0.02862741 0.00000000)
		(1.13966480 -0.04291268 0.00000000)
		(1.15642458 -0.05705491 0.00000000)
		(1.17318436 -0.07100695 0.00000000)
		(1.18994413 -0.08472230 0.00000000)
		(1.20670391 -0.09815524 0.00000000)
		(1.22346369 -0.11126098 0.00000000)
		(1.24022346 -0.12399584 0.00000000)
		(1.25698324 -0.13631738 0.00000000)
		(1.27374302 -0.14818452 0.00000000)
		(1.29050279 -0.15955769 0.00000000)
		(1.30726257 -0.17039900 0.00000000)
		(1.32402235 -0.18067230 0.00000000)
		(1.34078212 -0.19034334 0.00000000)
		(1.35754190 -0.19937990 0.00000000)
		(1.37430168 -0.20775184 0.00000000)
		(1.39106145 -0.21543126 0.00000000)
		(1.40782123 -0.22239256 0.00000000)
		(1.42458101 -0.22861253 0.00000000)
		(1.44134078 -0.23407045 0.00000000)
		(1.45810056 -0.23874812 0.00000000)
		(1.47486034 -0.24262994 0.00000000)
		(1.49162011 -0.24570299 0.00000000)
		(1.50837989 -0.24795700 0.00000000)
		(1.52513966 -0.24938447 0.00000000)
		(1.54189944 -0.24998064 0.00000000)
		(1.55865922 -0.24974353 0.00000000)
		(1.57541899 -0.24867392 0.00000000)
		(1.59217877 -0.24677538 0.00000000)
		(1.60893855 -0.24405424 0.00000000)
		(1.62569832 -0.24051957 0.00000000)
		(1.64245810 -0.23618315 0.00000000)
		(1.65921788 -0.23105944 0.00000000)
		(1.67597765 -0.22516551 0.00000000)
		(1.69273743 -0.21852101 0.00000000)
		(1.70949721 -0.21114810 0.00000000)
		(1.72625698 -0.20307134 0.00000000)
		(1.74301676 -0.19431767 0.00000000)
		(1.75977654 -0.18491625 0.00000000)
		(1.77653631 -0.17489844 0.00000000)
		(1.79329609 -0.16429762 0.00000000)
		(1.81005587 -0.15314913 0.00000000)
		(1.82681564 -0.14149013 0.00000000)
		(1.84357542 -0.12935948 0.00000000)
		(1.86033520 -0.11679763 0.00000000)
		(1.87709497 -0.10384645 0.00000000)
		(1.89385475 -0.09054910 0.00000000)
		(1.91061453 -0.07694992 0.00000000)
		(1.92737430 -0.06309423 0.00000000)
		(1.94413408 -0.04902823 0.00000000)
		(1.96089385 -0.03479879 0.00000000)
		(1.97765363 -0.02045335 0.00000000)
		(1.99441341 -0.00603974 0.00000000)
		(2.01117318 0.00839401 0.00000000)
		(2.02793296 0.02279978 0.00000000)
		(2.04469274 0.03712954 0.00000000)
		(2.06145251 0.05133554 0.00000000)
		(2.07821229 0.06537042 0.00000000)
		(2.09497207 0.07918739 0.00000000)
		(2.11173184 0.09274040 0.00000000)
		(2.12849162 0.10598426 0.00000000)
		(2.14525140 0.11887484 0.00000000)
		(2.16201117 0.13136916 0.00000000)
		(2.17877095 0.14342557 0.00000000)
		(2.19553073 0.15500389 0.00000000)
		(2.21229050 0.16606552 0.00000000)
		(2.22905028 0.17657358 0.00000000)
		(2.24581006 0.18649306 0.00000000)
		(2.26256983 0.19579087 0.00000000)
		(2.27932961 0.20443604 0.00000000)
		(2.29608939 0.21239974 0.00000000)
		(2.31284916 0.21965542 0.00000000)
		(2.32960894 0.22617891 0.00000000)
		(2.34636872 0.23194845 0.00000000)
		(2.36312849 0.23694481 0.00000000)
		(2.37988827 0.24115134 0.00000000)
		(2.39664804 0.24455402 0.00000000)
		(2.41340782 0.24714149 0.00000000)
		(2.43016760 0.24890515 0.00000000)
		(2.44692737 0.24983910 0.00000000)
		(2.46368715 0.24994024 0.00000000)
		(2.48044693 0.24920823 0.00000000)
		(2.49720670 0.24764551 0.00000000)
		(2.51396648 0.24525728 0.00000000)
		(2.53072626 0.24205152 0.00000000)
		(2.54748603 0.23803890 0.00000000)
		(2.56424581 0.23323279 0.00000000)
		(2.58100559 0.22764923 0.00000000)
		(2.59776536 0.22130683 0.00000000)
		(2.61452514 0.21422671 0.00000000)
		(2.63128492 0.20643250 0.00000000)
		(2.64804469 0.19795016 0.00000000)
		(2.66480447 0.18880797 0.00000000)
		(2.68156425 0.17903641 0.00000000)
		(2.69832402 0.16866805 0.00000000)
		(2.71508380 0.15773745 0.00000000)
		(2.73184358 0.14628105 0.00000000)
		(2.74860335 0.13433704 0.00000000)
		(2.76536313 0.12194522 0.00000000)
		(2.78212291 0.10914691 0.00000000)
		(2.79888268 0.09598478 0.00000000)
		(2.81564246 0.08250268 0.00000000)
		(2.83240223 0.06874557 0.00000000)
		(2.84916201 0.05475931 0.00000000)
		(2.86592179 0.04059051 0.00000000)
		(2.88268156 0.02628640 0.00000000)
		(2.89944134 0.01189468 0.00000000)
		(2.91620112 -0.00253670 0.00000000)
		(2.93296089 -0.01695962 0.00000000)
		(2.95166480 -0.02772300 0.00000000)
		(2.97036872 -0.03735339 0.00000000)
		(2.98907263 -0.04585080 0.00000000)
		(3.00777654 -0.05321521 0.00000000)
		(3.02648045 -0.05944664 0.00000000)
		(3.04518436 -0.06454509 0.00000000)
		(3.06388827 -0.06851054 0.00000000)
		(3.08259218 -0.07134301 0.00000000)
		(3.10129609 -0.07304249 0.00000000)
		(3.12000000 -0.07360899 0.00000000)
		(3.14000000 -0.07360899 0.00000000)
		(3.16000000 -0.07360899 0.00000000)
		(3.18000000 -0.07360899 0.00000000)
		(3.20000000 -0.07360899 0.00000000)
		(3.22000000 -0.07360899 0.00000000)
		(3.24000000 -0.07360899 0.00000000)
		(3.26000000 -0.07360899 0.00000000)
		(3.28000000 -0.07360899 0.00000000)
		(3.30000000 -0.07360899 0.00000000)
		(3.32000000 -0.07360899 0.00000000)
		(3.34000000 -0.07360899 0.00000000)
		(3.36000000 -0.07360899 0.00000000)
		(3.38000000 -0.07360899 0.00000000)
		(3.40000000 -0.07360899 0.00000000)
		(3.42000000 -0.07360899 0.00000000)
		(3.44000000 -0.07360899 0.00000000)
		(3.46000000 -0.07360899 0.00000000)
		(3.48000000 -0.07360899 0.00000000)
		(3.50000000 -0.07360899 0.00000000)
		(3.52000000 -0.07360899 0.00000000)
		(3.54000000 -0.07360899 0.00000000)
		(3.56000000 -0.07360899 0.00000000)
		(3.58000000 -0.07360899 0.00000000)
		(3.60000000 -0.07360899 0.00000000)
		(3.62000000 -0.07360899 0.00000000)
		(3.64000000 -0.07360899 0.00000000)
		(3.66000000 -0.07360899 0.00000000)
		(3.68000000 -0.07360899 0.00000000)
		(3.70000000 -0.07360899 0.00000000)
		(3.72000000 -0.07360899 0.00000000)
		(3.74000000 -0.07360899 0.00000000)
		(3.76000000 -0.07360899 0.00000000)
		(3.78000000 -0.07360899 0.00000000)
		(3.80000000 -0.07360899 0.00000000)
		(3.82000000 -0.07360899 0.00000000)
		(3.84000000 -0.07360899 0.00000000)
		(3.86000000 -0.07360899 0.00000000)
		(3.88000000 -0.07360899 0.00000000)
		(3.90000000 -0.07360899 0.00000000)
		(3.92000000 -0.07360899 0.00000000)
		(3.94000000 -0.07360899 0.00000000)
		(3.96000000 -0.07360899 0.00000000)
		(3.98000000 -0.07360899 0.00000000)
		(4.00000000 -0.07360899 0.00000000)
	)
	polyLine 4 5
	(
		(-1.00000000 -0.14372271 0.10000000)
		(-0.98000000 -0.14372271 0.10000000)
		(-0.96000000 -0.14372271 0.10000000)
		(-0.94000000 -0.14372271 0.10000000)
		(-0.92000000 -0.14372271 0.10000000)
		(-0.90000000 -0.14372271 0.10000000)
		(-0.88000000 -0.14372271 0.10000000)
		(-0.86000000 -0.14372271 0.10000000)
		(-0.84000000 -0.14372271 0.10000000)
		(-0.82000000 -0.14372271 0.10000000)
		(-0.80000000 -0.14372271 0.10000000)
		(-0.78000000 -0.14372271 0.10000000)
		(-0.76000000 -0.14372271 0.10000000)
		(-0.74000000 -0.14372271 0.10000000)
		(-0.72000000 -0.14372271 0.10000000)
		(-0.70000000 -0.14372271 0.10000000)
		(-0.68000000 -0.14372271 0.10000000)
		(-0.66000000 -0.14372271 0.10000000)
		(-0.64000000 -0.14372271 0.10000000)
		(-0.62000000 -0.14372271 0.10000000)
		(-0.60000000 -0.14372271 0.10000000)
		(-0.58000000 -0.14372271 0.10000000)
		(-0.56000000 -0.14372271 0.10000000)
		(-0.54000000 -0.14372271 0.10000000)
		(-0.52000000 -0.14372271 0.10000000)
		(-0.50000000 -0.14372271 0.10000000)
		(-0.48000000 -0.14372271 0.10000000)
		(-0.46000000 -0.14372271 0.10000000)
		(-0.44000000 -0.14372271 0.10000000)
		(-0.42000000 -0.14372271 0.10000000)
		(-0.40000000 -0.14372271 0.10000000)
		(-0.38000000 -0.14372271 0.10000000)
		(-0.36000000 -0.14372271 0.10000000)
		(-0.34000000 -0.14372271 0.10000000)
		(-0.32000000 -0.14372271 0.10000000)
		(-0.30000000 -0.14372271 0.10000000)
		(-0.28000000 -0.14372271 0.10000000)
		(-0.26000000 -0.14372271 0.10000000)
		(-0.24000000 -0.14372271 0.10000000)
		(-0.22000000 -0.14372271 0.10000000)
		(-0.20000000 -0.14372271 0.10000000)
		(-0.18000000 -0.14372271 0.10000000)
		(-0.16000000 -0.14372271 0.10000000)
		(-0.14000000 -0.14372271 0.10000000)
		(-0.12000000 -0.14372271 0.10000000)
		(-0.10000000 -0.14372271 0.10000000)
		(-0.08162011 -0.14308080 0.10000000)
		(-0.06324022 -0.14115507 0.10000000)
		(-0.04486034 -0.13794551 0.10000000)
		(-0.02648045 -0.13345213 0.10000000)
		(-0.00810056 -0.12767493 0.10000000)
		(0.01027933 -0.12061390 0.10000000)
		(0.02865922 -0.11226906 0.10000000)
		(0.04703911 -0.10264039 0.10000000)
		(0.06541899 -0.09172790 0.10000000)
		(0.08379888 -0.07953158 0.10000000)
		(0.10055866 -0.06572069 0.10000000)
		(0.11731844 -0.05169072 0.10000000)
		(0.13407821 -0.03748844 0.10000000)
		(0.15083799 -0.02316120 0.10000000)
		(0.16759777 -0.00875676 0.10000000)
		(0.18435754 0.00567687 0.10000000)
		(0.20111732 0.02009158 0.10000000)
		(0.21787709 0.03443932 0.10000000)
		(0.23463687 0.04867226 0.10000000)
		(0.25139665 0.06274295 0.10000000)
		(0.26815642 0.07660450 0.10000000)
		(0.28491620 0.09021069 0.10000000)
		(0.30167598 0.10351617 0.10000000)
		(0.31843575 0.11647659 0.10000000)
		(0.33519553 0.12904875 0.10000000)
		(0.35195531 0.14119074 0.10000000)
		(0.36871508 0.15286208 0.10000000)
		(0.38547486 0.16402387 0.10000000)
		(0.40223464 0.17463890 0.10000000)
		(0.41899441 0.18467179 0.10000000)
		(0.43575419 0.19408910 0.10000000)
		(0.45251397 0.20285942 0.10000000)
		(0.46927374 0.21095354 0.10000000)
		(0.48603352 0.21834446 0.10000000)
		(0.50279330 0.22500756 0.10000000)
		(0.51955307 0.23092061 0.10000000)
		(0.53631285 0.23606391 0.10000000)
		(0.55307263 0.24042031 0.10000000)
		(0.56983240 0.24397530 0.10000000)
		(0.58659218 0.24671702 0.10000000)
		(0.60335196 0.24863633 0.10000000)
		(0.62011173 0.24972683 0.10000000)
		(0.63687151 0.24998490 0.10000000)
		(0.65363128 0.24940966 0.10000000)
		(0.67039106 0.24800305 0.10000000)
		(0.68715084 0.24576973 0.10000000)
		(0.70391061 0.24271717 0.10000000)
		(0.72067039 0.23885554 0.10000000)
		(0.73743017 0.23419770 0.10000000)
		(0.75418994 0.22875919 0.10000000)
		(0.77094972 0.22255813 0.10000000)
		(0.78770950 0.21561519 0.10000000)
		(0.80446927 0.20795352 0.10000000)
		(0.82122905 0.19959866 0.10000000)
		(0.83798883 0.19057846 0.10000000)
		(0.85474860 0.18092298 0.10000000)
		(0.87150838 0.17066441 0.10000000)
		(0.88826816 0.15983695 0.10000000)
		(0.90502793 0.14847669 0.10000000)
		(0.92178771 0.13662150 0.10000000)
		(0.93854749 0.12431089 0.10000000)
		(0.95530726 0.11158590 0.10000000)
		(0.97206704 0.09848895 0.10000000)
		(0.98882682 0.08506370 0.10000000)
		(1.00558659 0.07135490 0.10000000)
		(1.02234637 0.05740824 0.10000000)
		(1.03910615 0.04327022 0.10000000)
		(1.05586592 0.02898796 0.10000000)
		(1.07262570 0.01460907 0.10000000)
		(1.08938547 0.00018148 0.10000000)
		(1.10614525 -0.01424671 0.10000000)
		(1.12290503 -0.02862741 0.10000000)
		(1.13966480 -0.04291268 0.10000000)
		(1.15642458 -0.05705491 0.10000000)
		(1.17318436 -0.07100695 0.10000000)
		(1.18994413 -0.08472230 0.10000000)
		(1.20670391 -0.09815524 0.10000000)
		(1.22346369 -0.11126098 0.10000000)
		(1.24022346 -0.12399584 0.10000000)
		(1.25698324 -0.13631738 0.10000000)
		(1.27374302 -0.14818452 0.10000000)
		(1.29050279 -0.15955769 0.10000000)
		(1.30726257 -0.17039900 0.10000000)
		(1.32402235 -0.18067230 0.10000000)
		(1.34078212 -0.19034334 0.10000000)
		(1.35754190 -0.19937990 0.10000000)
		(1.37430168 -0.20775184 0.10000000)
		(1.39106145 -0.21543126 0.10000000)
		(1.40782123 -0.22239256 0.10000000)
		(1.42458101 -0.22861253 0.10000000)
		(1.44134078 -0.23407045 0.10000000)
		(1.45810056 -0.23874812 0.10000000)
		(1.47486034 -0.24262994 0.10000000)
		(1.49162011 -0.24570299 0.10000000)
		(1.50837989 -0.24795700 0.10000000)
		(1.52513966 -0.24938447 0.10000000)
		(1.54189944 -0.24998064 0.10000000)
		(1.55865922 -0.24974353 0.10000000)
		(1.57541899 -0.24867392 0.10000000)
		(1.59217877 -0.24677538 0.10000000)
		(1.60893855 -0.24405424 0.10000000)
		(1.62569832 -0.24051957 0.10000000)
		(1.64245810 -0.23618315 0.10000000)
		(1.65921788 -0.23105944 0.10000000)
		(1.67597765 -0.22516551 0.10000000)
		(1.69273743 -0.21852101 0.10000000)
		(1.70949721 -0.21114810 0.10000000)
		(1.72625698 -0.20307134 0.10000000)
		(1.74301676 -0.19431767 0.10000000)
		(1.75977654 -0.18491625 0.10000000)
		(1.77653631 -0.17489844 0.10000000)
		(1.79329609 -0.16429762 0.10000000)
		(1.81005587 -0.15314913 0.10000000)
		(1.82681564 -0.14149013 0.10000000)
		(1.84357542 -0.12935948 0.10000000)
		(1.86033520 -0.11679763 0.10000000)
		(1.87709497 -0.10384645 0.10000000)
		(1.89385475 -0.09054910 0.10000000)
		(1.91061453 -0.07694992 0.10000000)
		(1.92737430 -0.06309423 0.10000000)
		(1.94413408 -0.04902823 0.10000000)
		(1.96089385 -0.03479879 0.10000000)
		(1.97765363 -0.02045335 0.10000000)
		(1.99441341 -0.00603974 0.10000000)
		(2.01117318 0.00839401 0.10000000)
		(2.02793296 0.02279978 0.10000000)
		(2.04469274 0.03712954 0.10000000)
		(2.06145251 0.05133554 0.10000000)
		(2.07821229 0.06537042 0.10000000)
		(2.09497207 0.07918739 0.10000000)
		(2.11173184 0.09274040 0.10000000)
		(2.12849162 0.10598426 0.10000000)
		(2.14525140 0.11887484 0.10000000)
		(2.16201117 0.13136916 0.10000000)
		(2.17877095 0.14342557 0.10000000)
		(2.19553073 0.15500389 0.10000000)
		(2.21229050 0.16606552 0.10000000)
		(2.22905028 0.17657358 0.10000000)
		(2.24581006 0.18649306 0.10000000)
		(2.26256983 0.19579087 0.10000000)
		(2.27932961 0.20443604 0.10000000)
		(2.29608939 0.21239974 0.10000000)
		(2.31284916 0.21965542 0.10000000)
		(2.32960894 0.22617891 0.10000000)
		(2.34636872 0.23194845 0.10000000)
		(2.36312849 0.23694481 0.10000000)
		(2.37988827 0.24115134 0.10000000)
		(2.39664804 0.24455402 0.10000000)
		(2.41340782 0.24714149 0.10000000)
		(2.43016760 0.24890515 0.10000000)
		(2.44692737 0.24983910 0.10000000)
		(2.46368715 0.24994024 0.10000000)
		(2.48044693 0.24920823 0.10000000)
		(2.49720670 0.24764551 0.10000000)
		(2.51396648 0.24525728 0.10000000)
		(2.53072626 0.24205152 0.10000000)
		(2.54748603 0.23803890 0.10000000)
		(2.56424581 0.23323279 0.10000000)
		(2.58100559 0.22764923 0.10000000)
		(2.59776536 0.22130683 0.10000000)
		(2.61452514 0.21422671 0.10000000)
		(2.63128492 0.20643250 0.10000000)
		(2.64804469 0.19795016 0.10000000)
		(2.66480447 0.18880797 0.10000000)
		(2.68156425 0.17903641 0.10000000)
		(2.69832402 0.16866805 0.10000000)
		(2.71508380 0.15773745 0.10000000)
		(2.73184358 0.14628105 0.10000000)
		(2.74860335 0.13433704 0.10000000)
		(2.76536313 0.12194522 0.10000000)
		(2.78212291 0.10914691 0.10000000)
		(2.79888268 0.09598478 0.10000000)
		(2.81564246 0.08250268 0.10000000)
		(2.83240223 0.06874557 0.10000000)
		(2.84916201 0.05475931 0.10000000)
		(2.86592179 0.04059051 0.10000000)
		(2.88268156 0.02628640 0.10000000)
		(2.89944134 0.01189468 0.10000000)
		(2.91620112 -0.00253670 0.10000000)
		(2.93296089 -0.01695962 0.10000000)
		(2.95166480 -0.02772300 0.10000000)
		(2.97036872 -0.03735339 0.10000000)
		(2.98907263 -0.04585080 0.10000000)
		(3.00777654 -0.05321521 0.10000000)
		(3.02648045 -0.05944664 0.10000000)
		(3.04518436 -0.06454509 0.10000000)
		(3.06388827 -0.06851054 0.10000000)
		(3.08259218 -0.07134301 0.10000000)
		(3.10129609 -0.07304249 0.10000000)
		(3.12000000 -0.07360899 0.10000000)
		(3.14000000 -0.07360899 0.10000000)
		(3.16000000 -0.07360899 0.10000000)
		(3.18000000 -0.07360899 0.10000000)
		(3.20000000 -0.07360899 0.10000000)
		(3.22000000 -0.07360899 0.10000000)
		(3.24000000 -0.07360899 0.10000000)
		(3.26000000 -0.07360899 0.10000000)
		(3.28000000 -0.07360899 0.10000000)
		(3.30000000 -0.07360899 0.10000000)
		(3.32000000 -0.07360899 0.10000000)
		(3.34000000 -0.07360899 0.10000000)
		(3.36000000 -0.07360899 0.10000000)
		(3.38000000 -0.07360899 0.10000000)
		(3.40000000 -0.07360899 0.10000000)
		(3.42000000 -0.07360899 0.10000000)
		(3.44000000 -0.07360899 0.10000000)
		(3.46000000 -0.07360899 0.10000000)
		(3.48000000 -0.07360899 0.10000000)
		(3.50000000 -0.07360899 0.10000000)
		(3.52000000 -0.07360899 0.10000000)
		(3.54000000 -0.07360899 0.10000000)
		(3.56000000 -0.07360899 0.10000000)
		(3.58000000 -0.07360899 0.10000000)
		(3.60000000 -0.07360899 0.10000000)
		(3.62000000 -0.07360899 0.10000000)
		(3.64000000 -0.07360899 0.10000000)
		(3.66000000 -0.07360899 0.10000000)
		(3.68000000 -0.07360899 0.10000000)
		(3.70000000 -0.07360899 0.10000000)
		(3.72000000 -0.07360899 0.10000000)
		(3.74000000 -0.07360899 0.10000000)
		(3.76000000 -0.07360899 0.10000000)
		(3.78000000 -0.07360899 0.10000000)
		(3.80000000 -0.07360899 0.10000000)
		(3.82000000 -0.07360899 0.10000000)
		(3.84000000 -0.07360899 0.10000000)
		(3.86000000 -0.07360899 0.10000000)
		(3.88000000 -0.07360899 0.10000000)
		(3.90000000 -0.07360899 0.10000000)
		(3.92000000 -0.07360899 0.10000000)
		(3.94000000 -0.07360899 0.10000000)
		(3.96000000 -0.07360899 0.10000000)
		(3.98000000 -0.07360899 0.10000000)
		(4.00000000 -0.07360899 0.10000000)
	)
	polyLine 3 2
	(
		(-1.00000000 0.35627729 0.00000000)
		(-0.98000000 0.35691290 0.00000000)
		(-0.96000000 0.35754851 0.00000000)
		(-0.94000000 0.35818411 0.00000000)
		(-0.92000000 0.35881972 0.00000000)
		(-0.90000000 0.35945533 0.00000000)
		(-0.88000000 0.36009094 0.00000000)
		(-0.86000000 0.36072655 0.00000000)
		(-0.84000000 0.36136216 0.00000000)
		(-0.82000000 0.36199777 0.00000000)
		(-0.80000000 0.36263338 0.00000000)
		(-0.78000000 0.36326899 0.00000000)
		(-0.76000000 0.36390459 0.00000000)
		(-0.74000000 0.36454020 0.00000000)
		(-0.72000000 0.36517581 0.00000000)
		(-0.70000000 0.36581142 0.00000000)
		(-0.68000000 0.36644703 0.00000000)
		(-0.66000000 0.36708264 0.00000000)
		(-0.64000000 0.36771825 0.00000000)
		(-0.62000000 0.36835386 0.00000000)
		(-0.60000000 0.36898947 0.00000000)
		(-0.58000000 0.36962507 0.00000000)
		(-0.56000000 0.37026068 0.00000000)
		(-0.54000000 0.37089629 0.00000000)
		(-0.52000000 0.37153190 0.00000000)
		(-0.50000000 0.37216751 0.00000000)
		(-0.48000000 0.37280312 0.00000000)
		(-0.46000000 0.37343873 0.00000000)
		(-0.44000000 0.37407434 0.00000000)
		(-0.42000000 0.37470995 0.00000000)
		(-0.40000000 0.37534555 0.00000000)
		(-0.38000000 0.37598116 0.00000000)
		(-0.36000000 0.37661677 0.00000000)
		(-0.34000000 0.37725238 0.00000000)
		(-0.32000000 0.37788799 0.00000000)
		(-0.30000000 0.37852360 0.00000000)
		(-0.28000000 0.37915921 0.00000000)
		(-0.26000000 0.37979482 0.00000000)
		(-0.24000000 0.38043043 0.00000000)
		(-0.22000000 0.38106603 0.00000000)
		(-0.20000000 0.38170164 0.00000000)
		(-0.18000000 0.38233725 0.00000000)
		(-0.16000000 0.38297286 0.00000000)
		(-0.14000000 0.38360847 0.00000000)
		(-0.12000000 0.38424408 0.00000000)
		(-0.10000000 0.38487969 0.00000000)
		(-0.08162011 0.38498724 0.00000000)
		(-0.06324022 0.38624475 0.00000000)
		(-0.04486034 0.38865221 0.00000000)
		(-0.02648045 0.39220961 0.00000000)
		(-0.00810056 0.39691697 0.00000000)
		(0.01027933 0.40277427 0.00000000)
		(0.02865922 0.40978152 0.00000000)
		(0.04703911 0.41793873 0.00000000)
		(0.06541899 0.42724588 0.00000000)
		(0.08379888 0.43770298 0.00000000)
		(0.10055866 0.44852104 0.00000000)
		(0.11731844 0.45951071 0.00000000)
		(0.13407821 0.47063533 0.00000000)
		(0.15083799 0.48185785 0.00000000)
		(0.16759777 0.49314084 0.00000000)
		(0.18435754 0.50444669 0.00000000)
		(0.20111732 0.51573772 0.00000000)
		(0.21787709 0.52697629 0.00000000)
		(0.23463687 0.53812494 0.00000000)
		(0.25139665 0.54914650 0.00000000)
		(0.26815642 0.56000424 0.00000000)
		(0.28491620 0.57066195 0.00000000)
		(0.30167598 0.58108413 0.00000000)
		(0.31843575 0.59123601 0.00000000)
		(0.33519553 0.60108377 0.00000000)
		(0.35195531 0.61059458 0.00000000)
		(0.36871508 0.61973673 0.00000000)
		(0.38547486 0.62847975 0.00000000)
		(0.40223464 0.63679450 0.00000000)
		(0.41899441 0.64465326 0.00000000)
		(0.43575419 0.65202982 0.00000000)
		(0.45251397 0.65889961 0.00000000)
		(0.46927374 0.66523973 0.00000000)
		(0.48603352 0.67102903 0.00000000)
		(0.50279330 0.67624822 0.00000000)
		(0.51955307 0.68087991 0.00000000)
		(0.53631285 0.68490866 0.00000000)
		(0.55307263 0.68832102 0.00000000)
		(0.56983240 0.69110564 0.00000000)
		(0.58659218 0.69325323 0.00000000)
		(0.60335196 0.69475662 0.00000000)
		(0.62011173 0.69561081 0.00000000)
		(0.63687151 0.69581296 0.00000000)
		(0.65363128 0.69536237 0.00000000)
		(0.67039106 0.69426057 0.00000000)
		(0.68715084 0.69251122 0.00000000)
		(0.70391061 0.69012015 0.00000000)
		(0.72067039 0.68709534 0.00000000)
		(0.73743017 0.68344686 0.00000000)
		(0.75418994 0.67918687 0.00000000)
		(0.77094972 0.67432959 0.00000000)
		(0.78770950 0.66889119 0.00000000)
		(0.80446927 0.66288982 0.00000000)
		(0.82122905 0.65634546 0.00000000)
		(0.83798883 0.64927994 0.00000000)
		(0.85474860 0.64171681 0.00000000)
		(0.87150838 0.63368129 0.00000000)
		(0.88826816 0.62520015 0.00000000)
		(0.90502793 0.61630166 0.00000000)
		(0.92178771 0.60701550 0.00000000)
		(0.93854749 0.59737261 0.00000000)
		(0.95530726 0.58740514 0.00000000)
		(0.97206704 0.57714631 0.00000000)
		(0.98882682 0.56663032 0.00000000)
		(1.00558659 0.55589223 0.00000000)
		(1.02234637 0.54496782 0.00000000)
		(1.03910615 0.53389352 0.00000000)
		(1.05586592 0.52270624 0.00000000)
		(1.07262570 0.51144327 0.00000000)
		(1.08938547 0.50014216 0.00000000)
		(1.10614525 0.48884057 0.00000000)
		(1.12290503 0.47757617 0.00000000)
		(1.13966480 0.46638653 0.00000000)
		(1.15642458 0.45530894 0.00000000)
		(1.17318436 0.44438031 0.00000000)
		(1.18994413 0.43363709 0.00000000)
		(1.20670391 0.42311509 0.00000000)
		(1.22346369 0.41284937 0.00000000)
		(1.24022346 0.40287416 0.00000000)
		(1.25698324 0.39322271 0.00000000)
		(1.27374302 0.38392720 0.00000000)
		(1.29050279 0.37501860 0.00000000)
		(1.30726257 0.36652661 0.00000000)
		(1.32402235 0.35847954 0.00000000)
		(1.34078212 0.35090422 0.00000000)
		(1.35754190 0.34382590 0.00000000)
		(1.37430168 0.33726816 0.00000000)
		(1.39106145 0.33125288 0.00000000)
		(1.40782123 0.32580010 0.00000000)
		(1.42458101 0.32092800 0.00000000)
		(1.44134078 0.31665282 0.00000000)
		(1.45810056 0.31298880 0.00000000)
		(1.47486034 0.30994817 0.00000000)
		(1.49162011 0.30754106 0.00000000)
		(1.50837989 0.30577550 0.00000000)
		(1.52513966 0.30465736 0.00000000)
		(1.54189944 0.30419038 0.00000000)
		(1.55865922 0.30437611 0.00000000)
		(1.57541899 0.30521393 0.00000000)
		(1.59217877 0.30670105 0.00000000)
		(1.60893855 0.30883252 0.00000000)
		(1.62569832 0.31160123 0.00000000)
		(1.64245810 0.31499794 0.00000000)
		(1.65921788 0.31901134 0.00000000)
		(1.67597765 0.32362805 0.00000000)
		(1.69273743 0.32883268 0.00000000)
		(1.70949721 0.33460788 0.00000000)
		(1.72625698 0.34093439 0.00000000)
		(1.74301676 0.34779114 0.00000000)
		(1.75977654 0.35515526 0.00000000)
		(1.77653631 0.36300220 0.00000000)
		(1.79329609 0.37130582 0.00000000)
		(1.81005587 0.38003842 0.00000000)
		(1.82681564 0.38917091 0.00000000)
		(1.84357542 0.39867283 0.00000000)
		(1.86033520 0.40851251 0.00000000)
		(1.87709497 0.41865717 0.00000000)
		(1.89385475 0.42907297 0.00000000)
		(1.91061453 0.43972519 0.00000000)
		(1.92737430 0.45057834 0.00000000)
		(1.94413408 0.46159623 0.00000000)
		(1.96089385 0.47274214 0.00000000)
		(1.97765363 0.48397891 0.00000000)
		(1.99441341 0.49526908 0.00000000)
		(2.01117318 0.50657502 0.00000000)
		(2.02793296 0.51785905 0.00000000)
		(2.04469274 0.52908354 0.00000000)
		(2.06145251 0.54021109 0.00000000)
		(2.07821229 0.55120459 0.00000000)
		(2.09497207 0.56202741 0.00000000)
		(2.11173184 0.57264347 0.00000000)
		(2.12849162 0.58301738 0.00000000)
		(2.14525140 0.59311456 0.00000000)
		(2.16201117 0.60290135 0.00000000)
		(2.17877095 0.61234513 0.00000000)
		(2.19553073 0.62141441 0.00000000)
		(2.21229050 0.63007898 0.00000000)
		(2.22905028 0.63830994 0.00000000)
		(2.24581006 0.64607985 0.00000000)
		(2.26256983 0.65336282 0.00000000)
		(2.27932961 0.66013457 0.00000000)
		(2.29608939 0.66637253 0.00000000)
		(2.31284916 0.67205591 0.00000000)
		(2.32960894 0.67716575 0.00000000)
		(2.34636872 0.68168502 0.00000000)
		(2.36312849 0.68559867 0.00000000)
		(2.37988827 0.68889364 0.00000000)
		(2.39664804 0.69155895 0.00000000)
		(2.41340782 0.69358572 0.00000000)
		(2.43016760 0.69496719 0.00000000)
		(2.44692737 0.69569876 0.00000000)
		(2.46368715 0.69577798 0.00000000)
		(2.48044693 0.69520459 0.00000000)