/*--------------------------------*- C++ -*----------------------------------*\\
/*--------------------------------*- C++ -*----------------------------------*\\
| =========                 |                                                 |
| \\\\      /  F ield         | OpenFOAM: The Open Source CFD Toolbox           |
|  \\\\    /   O peration     | Version:  v2012                                 |
|   \\\\  /    A nd           | Website:  www.openfoam.com                      |
|    \\\\/     M anipulation  |                                                 |
\\*---------------------------------------------------------------------------*/
FoamFile
{
    version     2.0;
    format      ascii;
    class       dictionary;
    object      blockMeshDict;
}
// * * * * * * * * * * * * * * * * * * * * * * * * * * * * * * * * * * * * * //

scale   0.01;

xmin -1;
xmax 5;
ymin 0;
ymax 0.5;
zmin 0;
zmax 0.1;

vertices
(
    (-1.00000000 -0.24090742 0.00000000)
    (4.00000000 -0.01947063 0.00000000)
    (4.00000000 0.48052937 0.00000000)
    (-1.00000000 0.25909258 0.00000000)
    (-1.00000000 -0.24090742 0.10000000)
    (4.00000000 -0.01947063 0.10000000)
    (4.00000000 0.48052937 0.10000000)
    (-1.00000000 0.25909258 0.10000000)
);

blocks
(
    hex (0 1 2 3 4 5 6 7) (200 20 1) simpleGrading (1 1 1)
);

edges
(
	polyLine 0 1
	(
		(-1.00000000 -0.24090742 0.00000000)
		(-0.98000000 -0.24090742 0.00000000)
		(-0.96000000 -0.24090742 0.00000000)
		(-0.94000000 -0.24090742 0.00000000)
		(-0.92000000 -0.24090742 0.00000000)
		(-0.90000000 -0.24090742 0.00000000)
		(-0.88000000 -0.24090742 0.00000000)
		(-0.86000000 -0.24090742 0.00000000)
		(-0.84000000 -0.24090742 0.00000000)
		(-0.82000000 -0.24090742 0.00000000)
		(-0.80000000 -0.24090742 0.00000000)
		(-0.78000000 -0.24090742 0.00000000)
		(-0.76000000 -0.24090742 0.00000000)
		(-0.74000000 -0.24090742 0.00000000)
		(-0.72000000 -0.24090742 0.00000000)
		(-0.70000000 -0.24090742 0.00000000)
		(-0.68000000 -0.24090742 0.00000000)
		(-0.66000000 -0.24090742 0.00000000)
		(-0.64000000 -0.24090742 0.00000000)
		(-0.62000000 -0.24090742 0.00000000)
		(-0.60000000 -0.24090742 0.00000000)
		(-0.58000000 -0.24090742 0.00000000)
		(-0.56000000 -0.24090742 0.00000000)
		(-0.54000000 -0.24090742 0.00000000)
		(-0.52000000 -0.24090742 0.00000000)
		(-0.50000000 -0.24090742 0.00000000)
		(-0.48000000 -0.24090742 0.00000000)
		(-0.46000000 -0.24090742 0.00000000)
		(-0.44000000 -0.24090742 0.00000000)
		(-0.42000000 -0.24090742 0.00000000)
		(-0.40000000 -0.24090742 0.00000000)
		(-0.38000000 -0.24090742 0.00000000)
		(-0.36000000 -0.24090742 0.00000000)
		(-0.34000000 -0.24090742 0.00000000)
		(-0.32000000 -0.24090742 0.00000000)
		(-0.30000000 -0.24090742 0.00000000)
		(-0.28000000 -0.24090742 0.00000000)
		(-0.26000000 -0.24090742 0.00000000)
		(-0.24000000 -0.24090742 0.00000000)
		(-0.22000000 -0.24090742 0.00000000)
		(-0.20000000 -0.24090742 0.00000000)
		(-0.18000000 -0.24090742 0.00000000)
		(-0.16000000 -0.24090742 0.00000000)
		(-0.14000000 -0.24090742 0.00000000)
		(-0.12000000 -0.24090742 0.00000000)
		(-0.10000000 -0.24090742 0.00000000)
		(-0.08162011 -0.24097733 0.00000000)
		(-0.06324022 -0.24118708 0.00000000)
		(-0.04486034 -0.24153664 0.00000000)
		(-0.02648045 -0.24202604 0.00000000)
		(-0.00810056 -0.24265526 0.00000000)
		(0.01027933 -0.24342432 0.00000000)
		(0.02865922 -0.24433319 0.00000000)
		(0.04703911 -0.24538190 0.00000000)
		(0.06541899 -0.24657043 0.00000000)
		(0.08379888 -0.24789879 0.00000000)
		(0.10055866 -0.24451828 0.00000000)
		(0.11731844 -0.23957156 0.00000000)
		(0.13407821 -0.23309032 0.00000000)
		(0.15083799 -0.22511607 0.00000000)
		(0.16759777 -0.21569988 0.00000000)
		(0.18435754 -0.20490208 0.00000000)
		(0.20111732 -0.19279182 0.00000000)
		(0.21787709 -0.17944668 0.00000000)
		(0.23463687 -0.16495213 0.00000000)
		(0.25139665 -0.14940101 0.00000000)
		(0.26815642 -0.13289294 0.00000000)
		(0.28491620 -0.11553365 0.00000000)
		(0.30167598 -0.09743434 0.00000000)
		(0.31843575 -0.07871093 0.00000000)
		(0.33519553 -0.05948335 0.00000000)
		(0.35195531 -0.03987477 0.00000000)
		(0.36871508 -0.02001078 0.00000000)
		(0.38547486 -0.00001862 0.00000000)
		(0.40223464 0.01997367 0.00000000)
		(0.41899441 0.03983802 0.00000000)
		(0.43575419 0.05944719 0.00000000)
		(0.45251397 0.07867559 0.00000000)
		(0.46927374 0.09740005 0.00000000)
		(0.48603352 0.11550063 0.00000000)
		(0.50279330 0.13286140 0.00000000)
		(0.51955307 0.14937116 0.00000000)
		(0.53631285 0.16492415 0.00000000)
		(0.55307263 0.17942075 0.00000000)
		(0.56983240 0.19276812 0.00000000)
		(0.58659218 0.20488075 0.00000000)
		(0.60335196 0.21568106 0.00000000)
		(0.62011173 0.22509987 0.00000000)
		(0.63687151 0.23307686 0.00000000)
		(0.65363128 0.23956092 0.00000000)
		(0.67039106 0.24451053 0.00000000)
		(0.68715084 0.24789397 0.00000000)
		(0.70391061 0.24968959 0.00000000)
		(0.72067039 0.24988588 0.00000000)
		(0.73743017 0.24848157 0.00000000)
		(0.75418994 0.24548567 0.00000000)
		(0.77094972 0.24091737 0.00000000)
		(0.78770950 0.23480592 0.00000000)
		(0.80446927 0.22719047 0.00000000)
		(0.82122905 0.21811981 0.00000000)
		(0.83798883 0.20765202 0.00000000)
		(0.85474860 0.19585417 0.00000000)
		(0.87150838 0.18280181 0.00000000)
		(0.88826816 0.16857856 0.00000000)
		(0.90502793 0.15327551 0.00000000)
		(0.92178771 0.13699070 0.00000000)
		(0.93854749 0.11982841 0.00000000)
		(0.95530726 0.10189860 0.00000000)
		(0.97206704 0.08331609 0.00000000)
		(0.98882682 0.06419992 0.00000000)
		(1.00558659 0.04467253 0.00000000)
		(1.02234637 0.02485900 0.00000000)
		(1.03910615 0.00488624 0.00000000)
		(1.05586592 -0.01511781 0.00000000)
		(1.07262570 -0.03502503 0.00000000)
		(1.08938547 -0.05470791 0.00000000)
		(1.10614525 -0.07404037 0.00000000)
		(1.12290503 -0.09289857 0.00000000)
		(1.13966480 -0.11116174 0.00000000)
		(1.15642458 -0.12871288 0.00000000)
		(1.17318436 -0.14543958 0.00000000)
		(1.18994413 -0.16123470 0.00000000)
		(1.20670391 -0.17599707 0.00000000)
		(1.22346369 -0.18963212 0.00000000)
		(1.24022346 -0.20205253 0.00000000)
		(1.25698324 -0.21317874 0.00000000)
		(1.27374302 -0.22293947 0.00000000)
		(1.29050279 -0.23127221 0.00000000)
		(1.30726257 -0.23812359 0.00000000)
		(1.32402235 -0.24344973 0.00000000)
		(1.34078212 -0.24721649 0.00000000)
		(1.35754190 -0.24939977 0.00000000)
		(1.37430168 -0.24998557 0.00000000)
		(1.39106145 -0.24897014 0.00000000)
		(1.40782123 -0.24635999 0.00000000)
		(1.42458101 -0.24217183 0.00000000)
		(1.44134078 -0.23643249 0.00000000)
		(1.45810056 -0.22917874 0.00000000)
		(1.47486034 -0.22045703 0.00000000)
		(1.49162011 -0.21032323 0.00000000)
		(1.50837989 -0.19884226 0.00000000)
		(1.52513966 -0.18608764 0.00000000)
		(1.54189944 -0.17214108 0.00000000)
		(1.55865922 -0.15709190 0.00000000)
		(1.57541899 -0.14103651 0.00000000)
		(1.59217877 -0.12407774 0.00000000)
		(1.60893855 -0.10632422 0.00000000)
		(1.62569832 -0.08788966 0.00000000)
		(1.64245810 -0.06889214 0.00000000)
		(1.65921788 -0.04945335 0.00000000)
		(1.67597765 -0.02969779 0.00000000)
		(1.69273743 -0.00975202 0.00000000)
		(1.70949721 0.01025622 0.00000000)
		(1.72625698 0.03019877 0.00000000)
		(1.74301676 0.04994789 0.00000000)
		(1.75977654 0.06937707 0.00000000)
		(1.77653631 0.08836188 0.00000000)
		(1.79329609 0.10678070 0.00000000)
		(1.81005587 0.12451556 0.00000000)
		(1.82681564 0.14145287 0.00000000)
		(1.84357542 0.15748413 0.00000000)
		(1.86033520 0.17250666 0.00000000)
		(1.87709497 0.18642423 0.00000000)
		(1.89385475 0.19914771 0.00000000)
		(1.91061453 0.21059559 0.00000000)
		(1.92737430 0.22069454 0.00000000)
		(1.94413408 0.22937989 0.00000000)
		(1.96089385 0.23659599 0.00000000)
		(1.97765363 0.24229662 0.00000000)
		(1.99441341 0.24644528 0.00000000)
		(2.01117318 0.24901539 0.00000000)
		(2.02793296 0.24999048 0.00000000)
		(2.04469274 0.24936431 0.00000000)
		(2.06145251 0.24714090 0.00000000)
		(2.07821229 0.24333448 0.00000000)
		(2.09497207 0.23796943 0.00000000)
		(2.11173184 0.23108012 0.00000000)
		(2.12849162 0.22271067 0.00000000)
		(2.14525140 0.21291471 0.00000000)
		(2.16201117 0.20175496 0.00000000)
		(2.17877095 0.18930291 0.00000000)
		(2.19553073 0.17563833 0.00000000)
		(2.21229050 0.16084874 0.00000000)
		(2.22905028 0.14502886 0.00000000)
		(2.24581006 0.12828003 0.00000000)
		(2.26256983 0.11070953 0.00000000)
		(2.27932961 0.09242991 0.00000000)
		(2.29608939 0.07355824 0.00000000)
		(2.31284916 0.05421542 0.00000000)
		(2.32960894 0.03452533 0.00000000)
		(2.34636872 0.01461410 0.00000000)
		(2.36312849 -0.00539075 0.00000000)
		(2.37988827 -0.02536106 0.00000000)
		(2.39664804 -0.04516893 0.00000000)
		(2.41340782 -0.06468748 0.00000000)
		(2.43016760 -0.08379168 0.00000000)
		(2.44692737 -0.10235918 0.00000000)
		(2.46368715 -0.12027104 0.00000000)
		(2.48044693 -0.13741252 0.00000000)
		(2.49720670 -0.15367385 0.00000000)
		(2.51396648 -0.16895084 0.00000000)
		(2.53072626 -0.18314566 0.00000000)
		(2.54748603 -0.19616738 0.00000000)
		(2.56424581 -0.20793260 0.00000000)
		(2.58100559 -0.21836594 0.00000000)
		(2.59776536 -0.22740059 0.00000000)
		(2.61452514 -0.23497868 0.00000000)
		(2.63128492 -0.24105166 0.00000000)
		(2.64804469 -0.24558063 0.00000000)
		(2.66480447 -0.24853660 0.00000000)
		(2.68156425 -0.24990061 0.00000000)
		(2.69832402 -0.24966395 0.00000000)
		(2.71508380 -0.24782811 0.00000000)
		(2.73184358 -0.24440486 0.00000000)
		(2.74860335 -0.23941614 0.00000000)
		(2.76536313 -0.23289388 0.00000000)
		(2.78212291 -0.22487988 0.00000000)
		(2.79888268 -0.21542545 0.00000000)
		(2.81564246 -0.20459117 0.00000000)
		(2.83240223 -0.19244642 0.00000000)
		(2.84916201 -0.17906899 0.00000000)
		(2.86592179 -0.16454458 0.00000000)
		(2.88268156 -0.14896622 0.00000000)
		(2.89944134 -0.13243368 0.00000000)
		(2.91620112 -0.11505287 0.00000000)
		(2.93296089 -0.09693511 0.00000000)
		(2.95166480 -0.08221686 0.00000000)
		(2.97036872 -0.06904790 0.00000000)
		(2.98907263 -0.05742823 0.00000000)
		(3.00777654 -0.04735784 0.00000000)
		(3.02648045 -0.03883675 0.00000000)
		(3.04518436 -0.03186495 0.00000000)
		(3.06388827 -0.02644243 0.00000000)
		(3.08259218 -0.02256921 0.00000000)
		(3.10129609 -0.02024528 0.00000000)
		(3.12000000 -0.01947063 0.00000000)
		(3.14000000 -0.01947063 0.00000000)
		(3.16000000 -0.01947063 0.00000000)
		(3.18000000 -0.01947063 0.00000000)
		(3.20000000 -0.01947063 0.00000000)
		(3.22000000 -0.01947063 0.00000000)
		(3.24000000 -0.01947063 0.00000000)
		(3.26000000 -0.01947063 0.00000000)
		(3.28000000 -0.01947063 0.00000000)
		(3.30000000 -0.01947063 0.00000000)
		(3.32000000 -0.01947063 0.00000000)
		(3.34000000 -0.01947063 0.00000000)
		(3.36000000 -0.01947063 0.00000000)
		(3.38000000 -0.01947063 0.00000000)
		(3.40000000 -0.01947063 0.00000000)
		(3.42000000 -0.01947063 0.00000000)
		(3.44000000 -0.01947063 0.00000000)
		(3.46000000 -0.01947063 0.00000000)
		(3.48000000 -0.01947063 0.00000000)
		(3.50000000 -0.01947063 0.00000000)
		(3.52000000 -0.01947063 0.00000000)
		(3.54000000 -0.01947063 0.00000000)
		(3.56000000 -0.01947063 0.00000000)
		(3.58000000 -0.01947063 0.00000000)
		(3.60000000 -0.01947063 0.00000000)
		(3.62000000 -0.01947063 0.00000000)
		(3.64000000 -0.01947063 0.00000000)
		(3.66000000 -0.01947063 0.00000000)
		(3.68000000 -0.01947063 0.00000000)
		(3.70000000 -0.01947063 0.00000000)
		(3.72000000 -0.01947063 0.00000000)
		(3.74000000 -0.01947063 0.00000000)
		(3.76000000 -0.01947063 0.00000000)
		(3.78000000 -0.01947063 0.00000000)
		(3.80000000 -0.01947063 0.00000000)
		(3.82000000 -0.01947063 0.00000000)
		(3.84000000 -0.01947063 0.00000000)
		(3.86000000 -0.01947063 0.00000000)
		(3.88000000 -0.01947063 0.00000000)
		(3.90000000 -0.01947063 0.00000000)
		(3.92000000 -0.01947063 0.00000000)
		(3.94000000 -0.01947063 0.00000000)
		(3.96000000 -0.01947063 0.00000000)
		(3.98000000 -0.01947063 0.00000000)
		(4.00000000 -0.01947063 0.00000000)
	)
	polyLine 4 5
	(
		(-1.00000000 -0.24090742 0.10000000)
		(-0.98000000 -0.24090742 0.10000000)
		(-0.96000000 -0.24090742 0.10000000)
		(-0.94000000 -0.24090742 0.10000000)
		(-0.92000000 -0.24090742 0.10000000)
		(-0.90000000 -0.24090742 0.10000000)
		(-0.88000000 -0.24090742 0.10000000)
		(-0.86000000 -0.24090742 0.10000000)
		(-0.84000000 -0.24090742 0.10000000)
		(-0.82000000 -0.24090742 0.10000000)
		(-0.80000000 -0.24090742 0.10000000)
		(-0.78000000 -0.24090742 0.10000000)
		(-0.76000000 -0.24090742 0.10000000)
		(-0.74000000 -0.24090742 0.10000000)
		(-0.72000000 -0.24090742 0.10000000)
		(-0.70000000 -0.24090742 0.10000000)
		(-0.68000000 -0.24090742 0.10000000)
		(-0.66000000 -0.24090742 0.10000000)
		(-0.64000000 -0.24090742 0.10000000)
		(-0.62000000 -0.24090742 0.10000000)
		(-0.60000000 -0.24090742 0.10000000)
		(-0.58000000 -0.24090742 0.10000000)
		(-0.56000000 -0.24090742 0.10000000)
		(-0.54000000 -0.24090742 0.10000000)
		(-0.52000000 -0.24090742 0.10000000)
		(-0.50000000 -0.24090742 0.10000000)
		(-0.48000000 -0.24090742 0.10000000)
		(-0.46000000 -0.24090742 0.10000000)
		(-0.44000000 -0.24090742 0.10000000)
		(-0.42000000 -0.24090742 0.10000000)
		(-0.40000000 -0.24090742 0.10000000)
		(-0.38000000 -0.24090742 0.10000000)
		(-0.36000000 -0.24090742 0.10000000)
		(-0.34000000 -0.24090742 0.10000000)
		(-0.32000000 -0.24090742 0.10000000)
		(-0.30000000 -0.24090742 0.10000000)
		(-0.28000000 -0.24090742 0.10000000)
		(-0.26000000 -0.24090742 0.10000000)
		(-0.24000000 -0.24090742 0.10000000)
		(-0.22000000 -0.24090742 0.10000000)
		(-0.20000000 -0.24090742 0.10000000)
		(-0.18000000 -0.24090742 0.10000000)
		(-0.16000000 -0.24090742 0.10000000)
		(-0.14000000 -0.24090742 0.10000000)
		(-0.12000000 -0.24090742 0.10000000)
		(-0.10000000 -0.24090742 0.10000000)
		(-0.08162011 -0.24097733 0.10000000)
		(-0.06324022 -0.24118708 0.10000000)
		(-0.04486034 -0.24153664 0.10000000)
		(-0.02648045 -0.24202604 0.10000000)
		(-0.00810056 -0.24265526 0.10000000)
		(0.01027933 -0.24342432 0.10000000)
		(0.02865922 -0.24433319 0.10000000)
		(0.04703911 -0.24538190 0.10000000)
		(0.06541899 -0.24657043 0.10000000)
		(0.08379888 -0.24789879 0.10000000)
		(0.10055866 -0.24451828 0.10000000)
		(0.11731844 -0.23957156 0.10000000)
		(0.13407821 -0.23309032 0.10000000)
		(0.15083799 -0.22511607 0.10000000)
		(0.16759777 -0.21569988 0.10000000)
		(0.18435754 -0.20490208 0.10000000)
		(0.20111732 -0.19279182 0.10000000)
		(0.21787709 -0.17944668 0.10000000)
		(0.23463687 -0.16495213 0.10000000)
		(0.25139665 -0.14940101 0.10000000)
		(0.26815642 -0.13289294 0.10000000)
		(0.28491620 -0.11553365 0.10000000)
		(0.30167598 -0.09743434 0.10000000)
		(0.31843575 -0.07871093 0.10000000)
		(0.33519553 -0.05948335 0.10000000)
		(0.35195531 -0.03987477 0.10000000)
		(0.36871508 -0.02001078 0.10000000)
		(0.38547486 -0.00001862 0.10000000)
		(0.40223464 0.01997367 0.10000000)
		(0.41899441 0.03983802 0.10000000)
		(0.43575419 0.05944719 0.10000000)
		(0.45251397 0.07867559 0.10000000)
		(0.46927374 0.09740005 0.10000000)
		(0.48603352 0.11550063 0.10000000)
		(0.50279330 0.13286140 0.10000000)
		(0.51955307 0.14937116 0.10000000)
		(0.53631285 0.16492415 0.10000000)
		(0.55307263 0.17942075 0.10000000)
		(0.56983240 0.19276812 0.10000000)
		(0.58659218 0.20488075 0.10000000)
		(0.60335196 0.21568106 0.10000000)
		(0.62011173 0.22509987 0.10000000)
		(0.63687151 0.23307686 0.10000000)
		(0.65363128 0.23956092 0.10000000)
		(0.67039106 0.24451053 0.10000000)
		(0.68715084 0.24789397 0.10000000)
		(0.70391061 0.24968959 0.10000000)
		(0.72067039 0.24988588 0.10000000)
		(0.73743017 0.24848157 0.10000000)
		(0.75418994 0.24548567 0.10000000)
		(0.77094972 0.24091737 0.10000000)
		(0.78770950 0.23480592 0.10000000)
		(0.80446927 0.22719047 0.10000000)
		(0.82122905 0.21811981 0.10000000)
		(0.83798883 0.20765202 0.10000000)
		(0.85474860 0.19585417 0.10000000)
		(0.87150838 0.18280181 0.10000000)
		(0.88826816 0.16857856 0.10000000)
		(0.90502793 0.15327551 0.10000000)
		(0.92178771 0.13699070 0.10000000)
		(0.93854749 0.11982841 0.10000000)
		(0.95530726 0.10189860 0.10000000)
		(0.97206704 0.08331609 0.10000000)
		(0.98882682 0.06419992 0.10000000)
		(1.00558659 0.04467253 0.10000000)
		(1.02234637 0.02485900 0.10000000)
		(1.03910615 0.00488624 0.10000000)
		(1.05586592 -0.01511781 0.10000000)
		(1.07262570 -0.03502503 0.10000000)
		(1.08938547 -0.05470791 0.10000000)
		(1.10614525 -0.07404037 0.10000000)
		(1.12290503 -0.09289857 0.10000000)
		(1.13966480 -0.11116174 0.10000000)
		(1.15642458 -0.12871288 0.10000000)
		(1.17318436 -0.14543958 0.10000000)
		(1.18994413 -0.16123470 0.10000000)
		(1.20670391 -0.17599707 0.10000000)
		(1.22346369 -0.18963212 0.10000000)
		(1.24022346 -0.20205253 0.10000000)
		(1.25698324 -0.21317874 0.10000000)
		(1.27374302 -0.22293947 0.10000000)
		(1.29050279 -0.23127221 0.10000000)
		(1.30726257 -0.23812359 0.10000000)
		(1.32402235 -0.24344973 0.10000000)
		(1.34078212 -0.24721649 0.10000000)
		(1.35754190 -0.24939977 0.10000000)
		(1.37430168 -0.24998557 0.10000000)
		(1.39106145 -0.24897014 0.10000000)
		(1.40782123 -0.24635999 0.10000000)
		(1.42458101 -0.24217183 0.10000000)
		(1.44134078 -0.23643249 0.10000000)
		(1.45810056 -0.22917874 0.10000000)
		(1.47486034 -0.22045703 0.10000000)
		(1.49162011 -0.21032323 0.10000000)
		(1.50837989 -0.19884226 0.10000000)
		(1.52513966 -0.18608764 0.10000000)
		(1.54189944 -0.17214108 0.10000000)
		(1.55865922 -0.15709190 0.10000000)
		(1.57541899 -0.14103651 0.10000000)
		(1.59217877 -0.12407774 0.10000000)
		(1.60893855 -0.10632422 0.10000000)
		(1.62569832 -0.08788966 0.10000000)
		(1.64245810 -0.06889214 0.10000000)
		(1.65921788 -0.04945335 0.10000000)
		(1.67597765 -0.02969779 0.10000000)
		(1.69273743 -0.00975202 0.10000000)
		(1.70949721 0.01025622 0.10000000)
		(1.72625698 0.03019877 0.10000000)
		(1.74301676 0.04994789 0.10000000)
		(1.75977654 0.06937707 0.10000000)
		(1.77653631 0.08836188 0.10000000)
		(1.79329609 0.10678070 0.10000000)
		(1.81005587 0.12451556 0.10000000)
		(1.82681564 0.14145287 0.10000000)
		(1.84357542 0.15748413 0.10000000)
		(1.86033520 0.17250666 0.10000000)
		(1.87709497 0.18642423 0.10000000)
		(1.89385475 0.19914771 0.10000000)
		(1.91061453 0.21059559 0.10000000)
		(1.92737430 0.22069454 0.10000000)
		(1.94413408 0.22937989 0.10000000)
		(1.96089385 0.23659599 0.10000000)
		(1.97765363 0.24229662 0.10000000)
		(1.99441341 0.24644528 0.10000000)
		(2.01117318 0.24901539 0.10000000)
		(2.02793296 0.24999048 0.10000000)
		(2.04469274 0.24936431 0.10000000)
		(2.06145251 0.24714090 0.10000000)
		(2.07821229 0.24333448 0.10000000)
		(2.09497207 0.23796943 0.10000000)
		(2.11173184 0.23108012 0.10000000)
		(2.12849162 0.22271067 0.10000000)
		(2.14525140 0.21291471 0.10000000)
		(2.16201117 0.20175496 0.10000000)
		(2.17877095 0.18930291 0.10000000)
		(2.19553073 0.17563833 0.10000000)
		(2.21229050 0.16084874 0.10000000)
		(2.22905028 0.14502886 0.10000000)
		(2.24581006 0.12828003 0.10000000)
		(2.26256983 0.11070953 0.10000000)
		(2.27932961 0.09242991 0.10000000)
		(2.29608939 0.07355824 0.10000000)
		(2.31284916 0.05421542 0.10000000)
		(2.32960894 0.03452533 0.10000000)
		(2.34636872 0.01461410 0.10000000)
		(2.36312849 -0.00539075 0.10000000)
		(2.37988827 -0.02536106 0.10000000)
		(2.39664804 -0.04516893 0.10000000)
		(2.41340782 -0.06468748 0.10000000)
		(2.43016760 -0.08379168 0.10000000)
		(2.44692737 -0.10235918 0.10000000)
		(2.46368715 -0.12027104 0.10000000)
		(2.48044693 -0.13741252 0.10000000)
		(2.49720670 -0.15367385 0.10000000)
		(2.51396648 -0.16895084 0.10000000)
		(2.53072626 -0.18314566 0.10000000)
		(2.54748603 -0.19616738 0.10000000)
		(2.56424581 -0.20793260 0.10000000)
		(2.58100559 -0.21836594 0.10000000)
		(2.59776536 -0.22740059 0.10000000)
		(2.61452514 -0.23497868 0.10000000)
		(2.63128492 -0.24105166 0.10000000)
		(2.64804469 -0.24558063 0.10000000)
		(2.66480447 -0.24853660 0.10000000)
		(2.68156425 -0.24990061 0.10000000)
		(2.69832402 -0.24966395 0.10000000)
		(2.71508380 -0.24782811 0.10000000)
		(2.73184358 -0.24440486 0.10000000)
		(2.74860335 -0.23941614 0.10000000)
		(2.76536313 -0.23289388 0.10000000)
		(2.78212291 -0.22487988 0.10000000)
		(2.79888268 -0.21542545 0.10000000)
		(2.81564246 -0.20459117 0.10000000)
		(2.83240223 -0.19244642 0.10000000)
		(2.84916201 -0.17906899 0.10000000)
		(2.86592179 -0.16454458 0.10000000)
		(2.88268156 -0.14896622 0.10000000)
		(2.89944134 -0.13243368 0.10000000)
		(2.91620112 -0.11505287 0.10000000)
		(2.93296089 -0.09693511 0.10000000)
		(2.95166480 -0.08221686 0.10000000)
		(2.97036872 -0.06904790 0.10000000)
		(2.98907263 -0.05742823 0.10000000)
		(3.00777654 -0.04735784 0.10000000)
		(3.02648045 -0.03883675 0.10000000)
		(3.04518436 -0.03186495 0.10000000)
		(3.06388827 -0.02644243 0.10000000)
		(3.08259218 -0.02256921 0.10000000)
		(3.10129609 -0.02024528 0.10000000)
		(3.12000000 -0.01947063 0.10000000)
		(3.14000000 -0.01947063 0.10000000)
		(3.16000000 -0.01947063 0.10000000)
		(3.18000000 -0.01947063 0.10000000)
		(3.20000000 -0.01947063 0.10000000)
		(3.22000000 -0.01947063 0.10000000)
		(3.24000000 -0.01947063 0.10000000)
		(3.26000000 -0.01947063 0.10000000)
		(3.28000000 -0.01947063 0.10000000)
		(3.30000000 -0.01947063 0.10000000)
		(3.32000000 -0.01947063 0.10000000)
		(3.34000000 -0.01947063 0.10000000)
		(3.36000000 -0.01947063 0.10000000)
		(3.38000000 -0.01947063 0.10000000)
		(3.40000000 -0.01947063 0.10000000)
		(3.42000000 -0.01947063 0.10000000)
		(3.44000000 -0.01947063 0.10000000)
		(3.46000000 -0.01947063 0.10000000)
		(3.48000000 -0.01947063 0.10000000)
		(3.50000000 -0.01947063 0.10000000)
		(3.52000000 -0.01947063 0.10000000)
		(3.54000000 -0.01947063 0.10000000)
		(3.56000000 -0.01947063 0.10000000)
		(3.58000000 -0.01947063 0.10000000)
		(3.60000000 -0.01947063 0.10000000)
		(3.62000000 -0.01947063 0.10000000)
		(3.64000000 -0.01947063 0.10000000)
		(3.66000000 -0.01947063 0.10000000)
		(3.68000000 -0.01947063 0.10000000)
		(3.70000000 -0.01947063 0.10000000)
		(3.72000000 -0.01947063 0.10000000)
		(3.74000000 -0.01947063 0.10000000)
		(3.76000000 -0.01947063 0.10000000)
		(3.78000000 -0.01947063 0.10000000)
		(3.80000000 -0.01947063 0.10000000)
		(3.82000000 -0.01947063 0.10000000)
		(3.84000000 -0.01947063 0.10000000)
		(3.86000000 -0.01947063 0.10000000)
		(3.88000000 -0.01947063 0.10000000)
		(3.90000000 -0.01947063 0.10000000)
		(3.92000000 -0.01947063 0.10000000)
		(3.94000000 -0.01947063 0.10000000)
		(3.96000000 -0.01947063 0.10000000)
		(3.98000000 -0.01947063 0.10000000)
		(4.00000000 -0.01947063 0.10000000)
	)
	polyLine 3 2
	(
		(-1.00000000 0.25909258 0.00000000)
		(-0.98000000 0.25572618 0.00000000)
		(-0.96000000 0.25235978 0.00000000)
		(-0.94000000 0.24899339 0.00000000)
		(-0.92000000 0.24562699 0.00000000)
		(-0.90000000 0.24226059 0.00000000)
		(-0.88000000 0.23889419 0.00000000)
		(-0.86000000 0.23552780 0.00000000)
		(-0.84000000 0.23216140 0.00000000)
		(-0.82000000 0.22879500 0.00000000)
		(-0.80000000 0.22542860 0.00000000)
		(-0.78000000 0.22206220 0.00000000)
		(-0.76000000 0.21869581 0.00000000)
		(-0.74000000 0.21532941 0.00000000)
		(-0.72000000 0.21196301 0.00000000)
		(-0.70000000 0.20859661 0.00000000)
		(-0.68000000 0.20523022 0.00000000)
		(-0.66000000 0.20186382 0.00000000)
		(-0.64000000 0.19849742 0.00000000)
		(-0.62000000 0.19513102 0.00000000)
		(-0.60000000 0.19176462 0.00000000)
		(-0.58000000 0.18839823 0.00000000)
		(-0.56000000 0.18503183 0.00000000)
		(-0.54000000 0.18166543 0.00000000)
		(-0.52000000 0.17829903 0.00000000)
		(-0.50000000 0.17493264 0.00000000)
		(-0.48000000 0.17156624 0.00000000)
		(-0.46000000 0.16819984 0.00000000)
		(-0.44000000 0.16483344 0.00000000)
		(-0.42000000 0.16146704 0.00000000)
		(-0.40000000 0.15810065 0.00000000)
		(-0.38000000 0.15473425 0.00000000)
		(-0.36000000 0.15136785 0.00000000)
		(-0.34000000 0.14800145 0.00000000)
		(-0.32000000 0.14463506 0.00000000)
		(-0.30000000 0.14126866 0.00000000)
		(-0.28000000 0.13790226 0.00000000)
		(-0.26000000 0.13453586 0.00000000)
		(-0.24000000 0.13116946 0.00000000)
		(-0.22000000 0.12780307 0.00000000)
		(-0.20000000 0.12443667 0.00000000)
		(-0.18000000 0.12107027 0.00000000)
		(-0.16000000 0.11770387 0.00000000)
		(-0.14000000 0.11433748 0.00000000)
		(-0.12000000 0.11097108 0.00000000)
		(-0.10000000 0.10760468 0.00000000)
		(-0.08162011 0.10533091 0.00000000)
		(-0.06324022 0.10300144 0.00000000)
		(-0.04486034 0.10061628 0.00000000)
		(-0.02648045 0.09817541 0.00000000)
		(-0.00810056 0.09567885 0.00000000)
		(0.01027933 0.09312660 0.00000000)
		(0.02865922 0.09051864 0.00000000)
		(0.04703911 0.08785499 0.00000000)
		(0.06541899 0.08513564 0.00000000)
		(0.08379888 0.08236060 0.00000000)
		(0.10055866 0.08805580 0.00000000)
		(0.11731844 0.09638963 0.00000000)
		(0.13407821 0.10730869 0.00000000)
		(0.15083799 0.12074305 0.00000000)
		(0.16759777 0.13660666 0.00000000)
		(0.18435754 0.15479791 0.00000000)
		(0.20111732 0.17520027 0.00000000)
		(0.21787709 0.19768307 0.00000000)
		(0.23463687 0.22210229 0.00000000)
		(0.25139665 0.24830152 0.00000000)
		(0.26815642 0.27611296 0.00000000)
		(0.28491620 0.30535845 0.00000000)
		(0.30167598 0.33585068 0.00000000)
		(0.31843575 0.36739433 0.00000000)
		(0.33519553 0.39978736 0.00000000)
		(0.35195531 0.43282228 0.00000000)
		(0.36871508 0.46628749 0.00000000)
		(0.38547486 0.49996864 0.00000000)
		(0.40223464 0.53364999 0.00000000)
		(0.41899441 0.56711580 0.00000000)
		(0.43575419 0.60015172 0.00000000)
		(0.45251397 0.63254613 0.00000000)
		(0.46927374 0.66409155 0.00000000)
		(0.48603352 0.69458592 0.00000000)
		(0.50279330 0.72383391 0.00000000)
		(0.51955307 0.75164818 0.00000000)
		(0.53631285 0.77785058 0.00000000)
		(0.55307263 0.80227326 0.00000000)
		(0.56983240 0.82475979 0.00000000)
		(0.58659218 0.84516615 0.00000000)
		(0.60335196 0.86336163 0.00000000)
		(0.62011173 0.87922966 0.00000000)
		(0.63687151 0.89266863 0.00000000)
		(0.65363128 0.90359244 0.00000000)
		(0.67039106 0.91193113 0.00000000)
		(0.68715084 0.91763128 0.00000000)
		(0.70391061 0.92065639 0.00000000)
		(0.72067039 0.92098707 0.00000000)
		(0.73743017 0.91862122 0.00000000)
		(0.75418994 0.91357397 0.00000000)
		(0.77094972 0.90587767 0.00000000)
		(0.78770950 0.89558161 0.00000000)
		(0.80446927 0.88275173 0.00000000)
		(0.82122905 0.86747022 0.00000000)
		(0.83798883 0.84983497 0.00000000)
		(0.85474860 0.82995892 0.00000000)
		(0.87150838 0.80796939 0.00000000)
		(0.88826816 0.78400723 0.00000000)
		(0.90502793 0.75822592 0.00000000)
		(0.92178771 0.73079060 0.00000000)
		(0.93854749 0.70187701 0.00000000)
		(0.95530726 0.67167033 0.00000000)
		(0.97206704 0.64036406 0.00000000)
		(0.98882682 0.60815872 0.00000000)
		(1.00558659 0.57526059 0.00000000)
		(1.02234637 0.54188039 0.00000000)
		(1.03910615 0.50823194 0.00000000)
		(1.05586592 0.47453076 0.00000000)
		(1.07262570 0.44099272 0.00000000)
		(1.08938547 0.40783263 0.00000000)
		(1.10614525 0.37526291 0.00000000)
		(1.12290503 0.34349216 0.00000000)
		(1.13966480 0.31272389 0.00000000)
		(1.15642458 0.28315517 0.00000000)
		(1.17318436 0.25497541 0.00000000)
		(1.18994413 0.22836510 0.00000000)
		(1.20670391 0.20349468 0.00000000)
		(1.22346369 0.18052347 0.00000000)
		(1.24022346 0.15959859 0.00000000)
		(1.25698324 0.14085408 0.00000000)
		(1.27374302 0.12441001 0.00000000)
		(1.29050279 0.11037169 0.00000000)
		(1.30726257 0.09882905 0.00000000)
		(1.32402235 0.08985602 0.00000000)
		(1.34078212 0.08351008 0.00000000)
		(1.35754190 0.07983188 0.00000000)
		(1.37430168 0.07884498 0.00000000)
		(1.39106145 0.08055569 0.00000000)
		(1.40782123 0.08495305 0.00000000)
		(1.42458101 0.09200892 0.00000000)
		(1.44134078 0.10167808 0.00000000)
		(1.45810056 0.11389860 0.00000000)
		(1.47486034 0.12859221 0.00000000)
		(1.49162011 0.14566480 0.00000000)
		(1.50837989 0.16500700 0.00000000)
		(1.52513966 0.18649492 0.00000000)
		(1.54189944 0.20999094 0.00000000)
		(1.55865922 0.23534454 0.00000000)
		(1.57541899 0.26239334 0.00000000)
		(1.59217877 0.29096407 0.00000000)
		(1.60893855 0.32087374 0.00000000)
		(1.62569832 0.35193077 0.00000000)
		(1.64245810 0.38393621 0.00000000)
		(1.65921788 0.41668508 0.00000000)
		(1.67597765 0.44996761 0.00000000)
		(1.69273743 0.48357061 0.00000000)
		(1.70949721 0.51727884 0.00000000)
		(1.72625698 0.55087639 0.00000000)
		(1.74301676 0.58414807 0.00000000)
		(1.75977654 0.61688076 0.00000000)
		(1.77653631 0.64886479 0.00000000)
		(1.79329609 0.67989530 0.00000000)
		(1.81005587 0.70977353 0.00000000)
		(1.82681564 0.73830810 0.00000000)
		(1.84357542 0.76531625 0.00000000)
		(1.86033520 0.79062496 0.00000000)
		(1.87709497 0.81407214 0.00000000)
		(1.89385475 0.83550760 0.00000000)
		(1.91061453 0.85479404 0.00000000)
		(1.92737430 0.87180793 0.00000000)
		(1.94413408 0.88644027 0.00000000)
		(1.96089385 0.89859736 0.00000000)
		(1.97765363 0.90820133 0.00000000)
		(1.99441341 0.91519064 0.00000000)
		(2.01117318 0.91952055 0.00000000)
		(2.02793296 0.92116330 0.00000000)
		(2.04469274 0.92010839 0.00000000)
		(2.06145251 0.91636256 0.00000000)
		(2.07821229 0.90994981 0.00000000)
		(2.09497207 0.90091122 0.00000000)
		(2.11173184 0.88930468 0.00000000)
		(2.12849162 0.87520454 0.00000000)
		(2.14525140 0.85870110 0.00000000)
		(2.16201117 0.83990008 0.00000000)
		(2.17877095 0.81892190 0.00000000)
		(2.19553073 0.79590094 0.00000000)
		(2.21229050 0.77098466 0.00000000)
		(2.22905028 0.74433263 0.00000000)
		(2.24581006 0.71611559 0.00000000)
		(2.26256983 0.68651427 0.00000000)
		(2.27932961 0.65571827 0.00000000)
		(2.29608939 0.62392485 0.00000000)
		(2.31284916 0.59133766 0.00000000)
		(2.32960894 0.55816542 0.00000000)
		(2.34636872 0.52462062 0.00000000)
		(2.36312849 0.49091812 0.00000000)
		(2.37988827 0.45727378 0.00000000)
		(2.39664804 0.42390312 0.00000000)
		(2.41340782 0.39101989 0.00000000)
		(2.43016760 0.35883470 0.00000000)
		(2.44692737 0.32755372 0.00000000)
		(2.46368715 0.29737730 0.00000000)