/*--------------------------------*- C++ -*----------------------------------*\\
/*--------------------------------*- C++ -*----------------------------------*\\
| =========                 |                                                 |
| \\\\      /  F ield         | OpenFOAM: The Open Source CFD Toolbox           |
|  \\\\    /   O peration     | Version:  v2012                                 |
|   \\\\  /    A nd           | Website:  www.openfoam.com                      |
|    \\\\/     M anipulation  |                                                 |
\\*---------------------------------------------------------------------------*/
FoamFile
{
    version     2.0;
    format      ascii;
    class       dictionary;
    object      blockMeshDict;
}
// * * * * * * * * * * * * * * * * * * * * * * * * * * * * * * * * * * * * * //

scale   0.01;

xmin -1;
xmax 5;
ymin 0;
ymax 0.5;
zmin 0;
zmax 0.1;

vertices
(
    (-1.00000000 -0.21382452 0.00000000)
    (4.00000000 -0.07202602 0.00000000)
    (4.00000000 0.42797398 0.00000000)
    (-1.00000000 0.28617548 0.00000000)
    (-1.00000000 -0.21382452 0.10000000)
    (4.00000000 -0.07202602 0.10000000)
    (4.00000000 0.42797398 0.10000000)
    (-1.00000000 0.28617548 0.10000000)
);

blocks
(
    hex (0 1 2 3 4 5 6 7) (200 20 1) simpleGrading (1 1 1)
);

edges
(
	polyLine 0 1
	(
		(-1.00000000 -0.21382452 0.00000000)
		(-0.98000000 -0.21382452 0.00000000)
		(-0.96000000 -0.21382452 0.00000000)
		(-0.94000000 -0.21382452 0.00000000)
		(-0.92000000 -0.21382452 0.00000000)
		(-0.90000000 -0.21382452 0.00000000)
		(-0.88000000 -0.21382452 0.00000000)
		(-0.86000000 -0.21382452 0.00000000)
		(-0.84000000 -0.21382452 0.00000000)
		(-0.82000000 -0.21382452 0.00000000)
		(-0.80000000 -0.21382452 0.00000000)
		(-0.78000000 -0.21382452 0.00000000)
		(-0.76000000 -0.21382452 0.00000000)
		(-0.74000000 -0.21382452 0.00000000)
		(-0.72000000 -0.21382452 0.00000000)
		(-0.70000000 -0.21382452 0.00000000)
		(-0.68000000 -0.21382452 0.00000000)
		(-0.66000000 -0.21382452 0.00000000)
		(-0.64000000 -0.21382452 0.00000000)
		(-0.62000000 -0.21382452 0.00000000)
		(-0.60000000 -0.21382452 0.00000000)
		(-0.58000000 -0.21382452 0.00000000)
		(-0.56000000 -0.21382452 0.00000000)
		(-0.54000000 -0.21382452 0.00000000)
		(-0.52000000 -0.21382452 0.00000000)
		(-0.50000000 -0.21382452 0.00000000)
		(-0.48000000 -0.21382452 0.00000000)
		(-0.46000000 -0.21382452 0.00000000)
		(-0.44000000 -0.21382452 0.00000000)
		(-0.42000000 -0.21382452 0.00000000)
		(-0.40000000 -0.21382452 0.00000000)
		(-0.38000000 -0.21382452 0.00000000)
		(-0.36000000 -0.21382452 0.00000000)
		(-0.34000000 -0.21382452 0.00000000)
		(-0.32000000 -0.21382452 0.00000000)
		(-0.30000000 -0.21382452 0.00000000)
		(-0.28000000 -0.21382452 0.00000000)
		(-0.26000000 -0.21382452 0.00000000)
		(-0.24000000 -0.21382452 0.00000000)
		(-0.22000000 -0.21382452 0.00000000)
		(-0.20000000 -0.21382452 0.00000000)
		(-0.18000000 -0.21382452 0.00000000)
		(-0.16000000 -0.21382452 0.00000000)
		(-0.14000000 -0.21382452 0.00000000)
		(-0.12000000 -0.21382452 0.00000000)
		(-0.10000000 -0.21382452 0.00000000)
		(-0.08162011 -0.21334605 0.00000000)
		(-0.06324022 -0.21191066 0.00000000)
		(-0.04486034 -0.20951833 0.00000000)
		(-0.02648045 -0.20616907 0.00000000)
		(-0.00810056 -0.20186289 0.00000000)
		(0.01027933 -0.19659977 0.00000000)
		(0.02865922 -0.19037972 0.00000000)
		(0.04703911 -0.18320274 0.00000000)
		(0.06541899 -0.17506882 0.00000000)
		(0.08379888 -0.16597798 0.00000000)
		(0.10055866 -0.15446542 0.00000000)
		(0.11731844 -0.14239662 0.00000000)
		(0.13407821 -0.12981505 0.00000000)
		(0.15083799 -0.11676601 0.00000000)
		(0.16759777 -0.10329649 0.00000000)
		(0.18435754 -0.08945500 0.00000000)
		(0.20111732 -0.07529138 0.00000000)
		(0.21787709 -0.06085663 0.00000000)
		(0.23463687 -0.04620273 0.00000000)
		(0.25139665 -0.03138246 0.00000000)
		(0.26815642 -0.01644918 0.00000000)
		(0.28491620 -0.00145666 0.00000000)
		(0.30167598 0.01354110 0.00000000)
		(0.31843575 0.02849010 0.00000000)
		(0.33519553 0.04333651 0.00000000)
		(0.35195531 0.05802686 0.00000000)
		(0.36871508 0.07250825 0.00000000)
		(0.38547486 0.08672854 0.00000000)
		(0.40223464 0.10063651 0.00000000)
		(0.41899441 0.11418210 0.00000000)
		(0.43575419 0.12731650 0.00000000)
		(0.45251397 0.13999244 0.00000000)
		(0.46927374 0.15216426 0.00000000)
		(0.48603352 0.16378813 0.00000000)
		(0.50279330 0.17482220 0.00000000)
		(0.51955307 0.18522673 0.00000000)
		(0.53631285 0.19496425 0.00000000)
		(0.55307263 0.20399969 0.00000000)
		(0.56983240 0.21230053 0.00000000)
		(0.58659218 0.21983687 0.00000000)
		(0.60335196 0.22658156 0.00000000)
		(0.62011173 0.23251033 0.00000000)
		(0.63687151 0.23760182 0.00000000)
		(0.65363128 0.24183771 0.00000000)
		(0.67039106 0.24520272 0.00000000)
		(0.68715084 0.24768476 0.00000000)
		(0.70391061 0.24927487 0.00000000)
		(0.72067039 0.24996734 0.00000000)
		(0.73743017 0.24975966 0.00000000)
		(0.75418994 0.24865260 0.00000000)
		(0.77094972 0.24665012 0.00000000)
		(0.78770950 0.24375946 0.00000000)
		(0.80446927 0.23999101 0.00000000)
		(0.82122905 0.23535834 0.00000000)
		(0.83798883 0.22987814 0.00000000)
		(0.85474860 0.22357014 0.00000000)
		(0.87150838 0.21645706 0.00000000)
		(0.88826816 0.20856451 0.00000000)
		(0.90502793 0.19992092 0.00000000)
		(0.92178771 0.19055740 0.00000000)
		(0.93854749 0.18050768 0.00000000)
		(0.95530726 0.16980794 0.00000000)
		(0.97206704 0.15849672 0.00000000)
		(0.98882682 0.14661475 0.00000000)
		(1.00558659 0.13420482 0.00000000)
		(1.02234637 0.12131161 0.00000000)
		(1.03910615 0.10798155 0.00000000)
		(1.05586592 0.09426265 0.00000000)
		(1.07262570 0.08020430 0.00000000)
		(1.08938547 0.06585714 0.00000000)
		(1.10614525 0.05127282 0.00000000)
		(1.12290503 0.03650387 0.00000000)
		(1.13966480 0.02160347 0.00000000)
		(1.15642458 0.00662527 0.00000000)
		(1.17318436 -0.00837678 0.00000000)
		(1.18994413 -0.02334867 0.00000000)
		(1.20670391 -0.03823649 0.00000000)
		(1.22346369 -0.05298661 0.00000000)
		(1.24022346 -0.06754592 0.00000000)
		(1.25698324 -0.08186200 0.00000000)
		(1.27374302 -0.09588329 0.00000000)
		(1.29050279 -0.10955930 0.00000000)
		(1.30726257 -0.12284079 0.00000000)
		(1.32402235 -0.13567992 0.00000000)
		(1.34078212 -0.14803047 0.00000000)
		(1.35754190 -0.15984795 0.00000000)
		(1.37430168 -0.17108982 0.00000000)
		(1.39106145 -0.18171558 0.00000000)
		(1.40782123 -0.19168699 0.00000000)
		(1.42458101 -0.20096812 0.00000000)
		(1.44134078 -0.20952556 0.00000000)
		(1.45810056 -0.21732849 0.00000000)
		(1.47486034 -0.22434881 0.00000000)
		(1.49162011 -0.23056125 0.00000000)
		(1.50837989 -0.23594343 0.00000000)
		(1.52513966 -0.24047597 0.00000000)
		(1.54189944 -0.24414255 0.00000000)
		(1.55865922 -0.24692996 0.00000000)
		(1.57541899 -0.24882817 0.00000000)
		(1.59217877 -0.24983034 0.00000000)
		(1.60893855 -0.24993287 0.00000000)
		(1.62569832 -0.24913538 0.00000000)
		(1.64245810 -0.24744075 0.00000000)
		(1.65921788 -0.24485507 0.00000000)
		(1.67597765 -0.24138766 0.00000000)
		(1.69273743 -0.23705101 0.00000000)
		(1.70949721 -0.23186073 0.00000000)
		(1.72625698 -0.22583552 0.00000000)
		(1.74301676 -0.21899706 0.00000000)
		(1.75977654 -0.21136999 0.00000000)
		(1.77653631 -0.20298176 0.00000000)
		(1.79329609 -0.19386260 0.00000000)
		(1.81005587 -0.18404532 0.00000000)
		(1.82681564 -0.17356530 0.00000000)
		(1.84357542 -0.16246026 0.00000000)
		(1.86033520 -0.15077020 0.00000000)
		(1.87709497 -0.13853721 0.00000000)
		(1.89385475 -0.12580534 0.00000000)
		(1.91061453 -0.11262044 0.00000000)
		(1.92737430 -0.09903000 0.00000000)
		(1.94413408 -0.08508294 0.00000000)
		(1.96089385 -0.07082950 0.00000000)
		(1.97765363 -0.05632099 0.00000000)
		(1.99441341 -0.04160968 0.00000000)
		(2.01117318 -0.02674852 0.00000000)
		(2.02793296 -0.01179105 0.00000000)
		(2.04469274 0.00320889 0.00000000)
		(2.06145251 0.01819727 0.00000000)
		(2.07821229 0.03312012 0.00000000)
		(2.09497207 0.04792370 0.00000000)
		(2.11173184 0.06255471 0.00000000)
		(2.12849162 0.07696046 0.00000000)
		(2.14525140 0.09108907 0.00000000)
		(2.16201117 0.10488967 0.00000000)
		(2.17877095 0.11831256 0.00000000)
		(2.19553073 0.13130940 0.00000000)
		(2.21229050 0.14383339 0.00000000)
		(2.22905028 0.15583943 0.00000000)
		(2.24581006 0.16728429 0.00000000)
		(2.26256983 0.17812675 0.00000000)
		(2.27932961 0.18832777 0.00000000)
		(2.29608939 0.19785062 0.00000000)
		(2.31284916 0.20666100 0.00000000)
		(2.32960894 0.21472719 0.00000000)
		(2.34636872 0.22202014 0.00000000)
		(2.36312849 0.22851359 0.00000000)
		(2.37988827 0.23418416 0.00000000)
		(2.39664804 0.23901142 0.00000000)
		(2.41340782 0.24297799 0.00000000)
		(2.43016760 0.24606959 0.00000000)
		(2.44692737 0.24827509 0.00000000)
		(2.46368715 0.24958654 0.00000000)
		(2.48044693 0.24999922 0.00000000)
		(2.49720670 0.24951165 0.00000000)
		(2.51396648 0.24812558 0.00000000)
		(2.53072626 0.24584599 0.00000000)
		(2.54748603 0.24268112 0.00000000)
		(2.56424581 0.23864233 0.00000000)
		(2.58100559 0.23374419 0.00000000)
		(2.59776536 0.22800433 0.00000000)
		(2.61452514 0.22144342 0.00000000)
		(2.63128492 0.21408509 0.00000000)
		(2.64804469 0.20595583 0.00000000)
		(2.66480447 0.19708491 0.00000000)
		(2.68156425 0.18750429 0.00000000)
		(2.69832402 0.17724845 0.00000000)
		(2.71508380 0.16635434 0.00000000)
		(2.73184358 0.15486118 0.00000000)
		(2.74860335 0.14281037 0.00000000)
		(2.76536313 0.13024528 0.00000000)
		(2.78212291 0.11721118 0.00000000)
		(2.79888268 0.10375500 0.00000000)
		(2.81564246 0.08992520 0.00000000)
		(2.83240223 0.07577157 0.00000000)
		(2.84916201 0.06134508 0.00000000)
		(2.86592179 0.04669769 0.00000000)
		(2.88268156 0.03188214 0.00000000)
		(2.89944134 0.01695179 0.00000000)
		(2.91620112 0.00196038 0.00000000)
		(2.93296089 -0.01303808 0.00000000)
		(2.95166480 -0.02424579 0.00000000)
		(2.97036872 -0.03427374 0.00000000)
		(2.98907263 -0.04312193 0.00000000)
		(3.00777654 -0.05079036 0.00000000)
		(3.02648045 -0.05727904 0.00000000)
		(3.04518436 -0.06258795 0.00000000)
		(3.06388827 -0.06671711 0.00000000)
		(3.08259218 -0.06966650 0.00000000)
		(3.10129609 -0.07143614 0.00000000)
		(3.12000000 -0.07202602 0.00000000)
		(3.14000000 -0.07202602 0.00000000)
		(3.16000000 -0.07202602 0.00000000)
		(3.18000000 -0.07202602 0.00000000)
		(3.20000000 -0.07202602 0.00000000)
		(3.22000000 -0.07202602 0.00000000)
		(3.24000000 -0.07202602 0.00000000)
		(3.26000000 -0.07202602 0.00000000)
		(3.28000000 -0.07202602 0.00000000)
		(3.30000000 -0.07202602 0.00000000)
		(3.32000000 -0.07202602 0.00000000)
		(3.34000000 -0.07202602 0.00000000)
		(3.36000000 -0.07202602 0.00000000)
		(3.38000000 -0.07202602 0.00000000)
		(3.40000000 -0.07202602 0.00000000)
		(3.42000000 -0.07202602 0.00000000)
		(3.44000000 -0.07202602 0.00000000)
		(3.46000000 -0.07202602 0.00000000)
		(3.48000000 -0.07202602 0.00000000)
		(3.50000000 -0.07202602 0.00000000)
		(3.52000000 -0.07202602 0.00000000)
		(3.54000000 -0.07202602 0.00000000)
		(3.56000000 -0.07202602 0.00000000)
		(3.58000000 -0.07202602 0.00000000)
		(3.60000000 -0.07202602 0.00000000)
		(3.62000000 -0.07202602 0.00000000)
		(3.64000000 -0.07202602 0.00000000)
		(3.66000000 -0.07202602 0.00000000)
		(3.68000000 -0.07202602 0.00000000)
		(3.70000000 -0.07202602 0.00000000)
		(3.72000000 -0.07202602 0.00000000)
		(3.74000000 -0.07202602 0.00000000)
		(3.76000000 -0.07202602 0.00000000)
		(3.78000000 -0.07202602 0.00000000)
		(3.80000000 -0.07202602 0.00000000)
		(3.82000000 -0.07202602 0.00000000)
		(3.84000000 -0.07202602 0.00000000)
		(3.86000000 -0.07202602 0.00000000)
		(3.88000000 -0.07202602 0.00000000)
		(3.90000000 -0.07202602 0.00000000)
		(3.92000000 -0.07202602 0.00000000)
		(3.94000000 -0.07202602 0.00000000)
		(3.96000000 -0.07202602 0.00000000)
		(3.98000000 -0.07202602 0.00000000)
		(4.00000000 -0.07202602 0.00000000)
	)
	polyLine 4 5
	(
		(-1.00000000 -0.21382452 0.10000000)
		(-0.98000000 -0.21382452 0.10000000)
		(-0.96000000 -0.21382452 0.10000000)
		(-0.94000000 -0.21382452 0.10000000)
		(-0.92000000 -0.21382452 0.10000000)
		(-0.90000000 -0.21382452 0.10000000)
		(-0.88000000 -0.21382452 0.10000000)
		(-0.86000000 -0.21382452 0.10000000)
		(-0.84000000 -0.21382452 0.10000000)
		(-0.82000000 -0.21382452 0.10000000)
		(-0.80000000 -0.21382452 0.10000000)
		(-0.78000000 -0.21382452 0.10000000)
		(-0.76000000 -0.21382452 0.10000000)
		(-0.74000000 -0.21382452 0.10000000)
		(-0.72000000 -0.21382452 0.10000000)
		(-0.70000000 -0.21382452 0.10000000)
		(-0.68000000 -0.21382452 0.10000000)
		(-0.66000000 -0.21382452 0.10000000)
		(-0.64000000 -0.21382452 0.10000000)
		(-0.62000000 -0.21382452 0.10000000)
		(-0.60000000 -0.21382452 0.10000000)
		(-0.58000000 -0.21382452 0.10000000)
		(-0.56000000 -0.21382452 0.10000000)
		(-0.54000000 -0.21382452 0.10000000)
		(-0.52000000 -0.21382452 0.10000000)
		(-0.50000000 -0.21382452 0.10000000)
		(-0.48000000 -0.21382452 0.10000000)
		(-0.46000000 -0.21382452 0.10000000)
		(-0.44000000 -0.21382452 0.10000000)
		(-0.42000000 -0.21382452 0.10000000)
		(-0.40000000 -0.21382452 0.10000000)
		(-0.38000000 -0.21382452 0.10000000)
		(-0.36000000 -0.21382452 0.10000000)
		(-0.34000000 -0.21382452 0.10000000)
		(-0.32000000 -0.21382452 0.10000000)
		(-0.30000000 -0.21382452 0.10000000)
		(-0.28000000 -0.21382452 0.10000000)
		(-0.26000000 -0.21382452 0.10000000)
		(-0.24000000 -0.21382452 0.10000000)
		(-0.22000000 -0.21382452 0.10000000)
		(-0.20000000 -0.21382452 0.10000000)
		(-0.18000000 -0.21382452 0.10000000)
		(-0.16000000 -0.21382452 0.10000000)
		(-0.14000000 -0.21382452 0.10000000)
		(-0.12000000 -0.21382452 0.10000000)
		(-0.10000000 -0.21382452 0.10000000)
		(-0.08162011 -0.21334605 0.10000000)
		(-0.06324022 -0.21191066 0.10000000)
		(-0.04486034 -0.20951833 0.10000000)
		(-0.02648045 -0.20616907 0.10000000)
		(-0.00810056 -0.20186289 0.10000000)
		(0.01027933 -0.19659977 0.10000000)
		(0.02865922 -0.19037972 0.10000000)
		(0.04703911 -0.18320274 0.10000000)
		(0.06541899 -0.17506882 0.10000000)
		(0.08379888 -0.16597798 0.10000000)
		(0.10055866 -0.15446542 0.10000000)
		(0.11731844 -0.14239662 0.10000000)
		(0.13407821 -0.12981505 0.10000000)
		(0.15083799 -0.11676601 0.10000000)
		(0.16759777 -0.10329649 0.10000000)
		(0.18435754 -0.08945500 0.10000000)
		(0.20111732 -0.07529138 0.10000000)
		(0.21787709 -0.06085663 0.10000000)
		(0.23463687 -0.04620273 0.10000000)
		(0.25139665 -0.03138246 0.10000000)
		(0.26815642 -0.01644918 0.10000000)
		(0.28491620 -0.00145666 0.10000000)
		(0.30167598 0.01354110 0.10000000)
		(0.31843575 0.02849010 0.10000000)
		(0.33519553 0.04333651 0.10000000)
		(0.35195531 0.05802686 0.10000000)
		(0.36871508 0.07250825 0.10000000)
		(0.38547486 0.08672854 0.10000000)
		(0.40223464 0.10063651 0.10000000)
		(0.41899441 0.11418210 0.10000000)
		(0.43575419 0.12731650 0.10000000)
		(0.45251397 0.13999244 0.10000000)
		(0.46927374 0.15216426 0.10000000)
		(0.48603352 0.16378813 0.10000000)
		(0.50279330 0.17482220 0.10000000)
		(0.51955307 0.18522673 0.10000000)
		(0.53631285 0.19496425 0.10000000)
		(0.55307263 0.20399969 0.10000000)
		(0.56983240 0.21230053 0.10000000)
		(0.58659218 0.21983687 0.10000000)
		(0.60335196 0.22658156 0.10000000)
		(0.62011173 0.23251033 0.10000000)
		(0.63687151 0.23760182 0.10000000)
		(0.65363128 0.24183771 0.10000000)
		(0.67039106 0.24520272 0.10000000)
		(0.68715084 0.24768476 0.10000000)
		(0.70391061 0.24927487 0.10000000)
		(0.72067039 0.24996734 0.10000000)
		(0.73743017 0.24975966 0.10000000)
		(0.75418994 0.24865260 0.10000000)
		(0.77094972 0.24665012 0.10000000)
		(0.78770950 0.24375946 0.10000000)
		(0.80446927 0.23999101 0.10000000)
		(0.82122905 0.23535834 0.10000000)
		(0.83798883 0.22987814 0.10000000)
		(0.85474860 0.22357014 0.10000000)
		(0.87150838 0.21645706 0.10000000)
		(0.88826816 0.20856451 0.10000000)
		(0.90502793 0.19992092 0.10000000)
		(0.92178771 0.19055740 0.10000000)
		(0.93854749 0.18050768 0.10000000)
		(0.95530726 0.16980794 0.10000000)
		(0.97206704 0.15849672 0.10000000)
		(0.98882682 0.14661475 0.10000000)
		(1.00558659 0.13420482 0.10000000)
		(1.02234637 0.12131161 0.10000000)
		(1.03910615 0.10798155 0.10000000)
		(1.05586592 0.09426265 0.10000000)
		(1.07262570 0.08020430 0.10000000)
		(1.08938547 0.06585714 0.10000000)
		(1.10614525 0.05127282 0.10000000)
		(1.12290503 0.03650387 0.10000000)
		(1.13966480 0.02160347 0.10000000)
		(1.15642458 0.00662527 0.10000000)
		(1.17318436 -0.00837678 0.10000000)
		(1.18994413 -0.02334867 0.10000000)
		(1.20670391 -0.03823649 0.10000000)
		(1.22346369 -0.05298661 0.10000000)
		(1.24022346 -0.06754592 0.10000000)
		(1.25698324 -0.08186200 0.10000000)
		(1.27374302 -0.09588329 0.10000000)
		(1.29050279 -0.10955930 0.10000000)
		(1.30726257 -0.12284079 0.10000000)
		(1.32402235 -0.13567992 0.10000000)
		(1.34078212 -0.14803047 0.10000000)
		(1.35754190 -0.15984795 0.10000000)
		(1.37430168 -0.17108982 0.10000000)
		(1.39106145 -0.18171558 0.10000000)
		(1.40782123 -0.19168699 0.10000000)
		(1.42458101 -0.20096812 0.10000000)
		(1.44134078 -0.20952556 0.10000000)
		(1.45810056 -0.21732849 0.10000000)
		(1.47486034 -0.22434881 0.10000000)
		(1.49162011 -0.23056125 0.10000000)
		(1.50837989 -0.23594343 0.10000000)
		(1.52513966 -0.24047597 0.10000000)
		(1.54189944 -0.24414255 0.10000000)
		(1.55865922 -0.24692996 0.10000000)
		(1.57541899 -0.24882817 0.10000000)
		(1.59217877 -0.24983034 0.10000000)
		(1.60893855 -0.24993287 0.10000000)
		(1.62569832 -0.24913538 0.10000000)
		(1.64245810 -0.24744075 0.10000000)
		(1.65921788 -0.24485507 0.10000000)
		(1.67597765 -0.24138766 0.10000000)
		(1.69273743 -0.23705101 0.10000000)
		(1.70949721 -0.23186073 0.10000000)
		(1.72625698 -0.22583552 0.10000000)
		(1.74301676 -0.21899706 0.10000000)
		(1.75977654 -0.21136999 0.10000000)
		(1.77653631 -0.20298176 0.10000000)
		(1.79329609 -0.19386260 0.10000000)
		(1.81005587 -0.18404532 0.10000000)
		(1.82681564 -0.17356530 0.10000000)
		(1.84357542 -0.16246026 0.10000000)
		(1.86033520 -0.15077020 0.10000000)
		(1.87709497 -0.13853721 0.10000000)
		(1.89385475 -0.12580534 0.10000000)
		(1.91061453 -0.11262044 0.10000000)
		(1.92737430 -0.09903000 0.10000000)
		(1.94413408 -0.08508294 0.10000000)
		(1.96089385 -0.07082950 0.10000000)
		(1.97765363 -0.05632099 0.10000000)
		(1.99441341 -0.04160968 0.10000000)
		(2.01117318 -0.02674852 0.10000000)
		(2.02793296 -0.01179105 0.10000000)
		(2.04469274 0.00320889 0.10000000)
		(2.06145251 0.01819727 0.10000000)
		(2.07821229 0.03312012 0.10000000)
		(2.09497207 0.04792370 0.10000000)
		(2.11173184 0.06255471 0.10000000)
		(2.12849162 0.07696046 0.10000000)
		(2.14525140 0.09108907 0.10000000)
		(2.16201117 0.10488967 0.10000000)
		(2.17877095 0.11831256 0.10000000)
		(2.19553073 0.13130940 0.10000000)
		(2.21229050 0.14383339 0.10000000)
		(2.22905028 0.15583943 0.10000000)
		(2.24581006 0.16728429 0.10000000)
		(2.26256983 0.17812675 0.10000000)
		(2.27932961 0.18832777 0.10000000)
		(2.29608939 0.19785062 0.10000000)
		(2.31284916 0.20666100 0.10000000)
		(2.32960894 0.21472719 0.10000000)
		(2.34636872 0.22202014 0.10000000)
		(2.36312849 0.22851359 0.10000000)
		(2.37988827 0.23418416 0.10000000)
		(2.39664804 0.23901142 0.10000000)
		(2.41340782 0.24297799 0.10000000)
		(2.43016760 0.24606959 0.10000000)
		(2.44692737 0.24827509 0.10000000)
		(2.46368715 0.24958654 0.10000000)
		(2.48044693 0.24999922 0.10000000)
		(2.49720670 0.24951165 0.10000000)
		(2.51396648 0.24812558 0.10000000)
		(2.53072626 0.24584599 0.10000000)
		(2.54748603 0.24268112 0.10000000)
		(2.56424581 0.23864233 0.10000000)
		(2.58100559 0.23374419 0.10000000)
		(2.59776536 0.22800433 0.10000000)
		(2.61452514 0.22144342 0.10000000)
		(2.63128492 0.21408509 0.10000000)
		(2.64804469 0.20595583 0.10000000)
		(2.66480447 0.19708491 0.10000000)
		(2.68156425 0.18750429 0.10000000)
		(2.69832402 0.17724845 0.10000000)
		(2.71508380 0.16635434 0.10000000)
		(2.73184358 0.15486118 0.10000000)
		(2.74860335 0.14281037 0.10000000)
		(2.76536313 0.13024528 0.10000000)
		(2.78212291 0.11721118 0.10000000)
		(2.79888268 0.10375500 0.10000000)
		(2.81564246 0.08992520 0.10000000)
		(2.83240223 0.07577157 0.10000000)
		(2.84916201 0.06134508 0.10000000)
		(2.86592179 0.04669769 0.10000000)
		(2.88268156 0.03188214 0.10000000)
		(2.89944134 0.01695179 0.10000000)
		(2.91620112 0.00196038 0.10000000)
		(2.93296089 -0.01303808 0.10000000)
		(2.95166480 -0.02424579 0.10000000)
		(2.97036872 -0.03427374 0.10000000)
		(2.98907263 -0.04312193 0.10000000)
		(3.00777654 -0.05079036 0.10000000)
		(3.02648045 -0.05727904 0.10000000)
		(3.04518436 -0.06258795 0.10000000)
		(3.06388827 -0.06671711 0.10000000)
		(3.08259218 -0.06966650 0.10000000)
		(3.10129609 -0.07143614 0.10000000)
		(3.12000000 -0.07202602 0.10000000)
		(3.14000000 -0.07202602 0.10000000)
		(3.16000000 -0.07202602 0.10000000)
		(3.18000000 -0.07202602 0.10000000)
		(3.20000000 -0.07202602 0.10000000)
		(3.22000000 -0.07202602 0.10000000)
		(3.24000000 -0.07202602 0.10000000)
		(3.26000000 -0.07202602 0.10000000)
		(3.28000000 -0.07202602 0.10000000)
		(3.30000000 -0.07202602 0.10000000)
		(3.32000000 -0.07202602 0.10000000)
		(3.34000000 -0.07202602 0.10000000)
		(3.36000000 -0.07202602 0.10000000)
		(3.38000000 -0.07202602 0.10000000)
		(3.40000000 -0.07202602 0.10000000)
		(3.42000000 -0.07202602 0.10000000)
		(3.44000000 -0.07202602 0.10000000)
		(3.46000000 -0.07202602 0.10000000)
		(3.48000000 -0.07202602 0.10000000)
		(3.50000000 -0.07202602 0.10000000)
		(3.52000000 -0.07202602 0.10000000)
		(3.54000000 -0.07202602 0.10000000)
		(3.56000000 -0.07202602 0.10000000)
		(3.58000000 -0.07202602 0.10000000)
		(3.60000000 -0.07202602 0.10000000)
		(3.62000000 -0.07202602 0.10000000)
		(3.64000000 -0.07202602 0.10000000)
		(3.66000000 -0.07202602 0.10000000)
		(3.68000000 -0.07202602 0.10000000)
		(3.70000000 -0.07202602 0.10000000)
		(3.72000000 -0.07202602 0.10000000)
		(3.74000000 -0.07202602 0.10000000)
		(3.76000000 -0.07202602 0.10000000)
		(3.78000000 -0.07202602 0.10000000)
		(3.80000000 -0.07202602 0.10000000)
		(3.82000000 -0.07202602 0.10000000)
		(3.84000000 -0.07202602 0.10000000)
		(3.86000000 -0.07202602 0.10000000)
		(3.88000000 -0.07202602 0.10000000)
		(3.90000000 -0.07202602 0.10000000)
		(3.92000000 -0.07202602 0.10000000)
		(3.94000000 -0.07202602 0.10000000)
		(3.96000000 -0.07202602 0.10000000)
		(3.98000000 -0.07202602 0.10000000)
		(4.00000000 -0.07202602 0.10000000)
	)
	polyLine 3 2
	(
		(-1.00000000 0.28617548 0.00000000)
		(-0.98000000 0.28794386 0.00000000)
		(-0.96000000 0.28971224 0.00000000)
		(-0.94000000 0.29148062 0.00000000)
		(-0.92000000 0.29324901 0.00000000)
		(-0.90000000 0.29501739 0.00000000)
		(-0.88000000 0.29678577 0.00000000)
		(-0.86000000 0.29855415 0.00000000)
		(-0.84000000 0.30032253 0.00000000)
		(-0.82000000 0.30209091 0.00000000)
		(-0.80000000 0.30385930 0.00000000)
		(-0.78000000 0.30562768 0.00000000)
		(-0.76000000 0.30739606 0.00000000)
		(-0.74000000 0.30916444 0.00000000)
		(-0.72000000 0.31093282 0.00000000)
		(-0.70000000 0.31270120 0.00000000)
		(-0.68000000 0.31446959 0.00000000)
		(-0.66000000 0.31623797 0.00000000)
		(-0.64000000 0.31800635 0.00000000)
		(-0.62000000 0.31977473 0.00000000)
		(-0.60000000 0.32154311 0.00000000)
		(-0.58000000 0.32331149 0.00000000)
		(-0.56000000 0.32507987 0.00000000)
		(-0.54000000 0.32684826 0.00000000)
		(-0.52000000 0.32861664 0.00000000)
		(-0.50000000 0.33038502 0.00000000)
		(-0.48000000 0.33215340 0.00000000)
		(-0.46000000 0.33392178 0.00000000)
		(-0.44000000 0.33569016 0.00000000)
		(-0.42000000 0.33745855 0.00000000)
		(-0.40000000 0.33922693 0.00000000)
		(-0.38000000 0.34099531 0.00000000)
		(-0.36000000 0.34276369 0.00000000)
		(-0.34000000 0.34453207 0.00000000)
		(-0.32000000 0.34630045 0.00000000)
		(-0.30000000 0.34806884 0.00000000)
		(-0.28000000 0.34983722 0.00000000)
		(-0.26000000 0.35160560 0.00000000)
		(-0.24000000 0.35337398 0.00000000)
		(-0.22000000 0.35514236 0.00000000)
		(-0.20000000 0.35691074 0.00000000)
		(-0.18000000 0.35867912 0.00000000)
		(-0.16000000 0.36044751 0.00000000)
		(-0.14000000 0.36221589 0.00000000)
		(-0.12000000 0.36398427 0.00000000)
		(-0.10000000 0.36575265 0.00000000)
		(-0.08162011 0.36679797 0.00000000)
		(-0.06324022 0.36840056 0.00000000)
		(-0.04486034 0.37056044 0.00000000)
		(-0.02648045 0.37327758 0.00000000)
		(-0.00810056 0.37655201 0.00000000)
		(0.01027933 0.38038371 0.00000000)
		(0.02865922 0.38477269 0.00000000)
		(0.04703911 0.38971894 0.00000000)
		(0.06541899 0.39522248 0.00000000)
		(0.08379888 0.40128328 0.00000000)
		(0.10055866 0.40813047 0.00000000)
		(0.11731844 0.41530848 0.00000000)
		(0.13407821 0.42279147 0.00000000)
		(0.15083799 0.43055249 0.00000000)
		(0.16759777 0.43856360 0.00000000)
		(0.18435754 0.44679593 0.00000000)
		(0.20111732 0.45521986 0.00000000)
		(0.21787709 0.46380504 0.00000000)
		(0.23463687 0.47252056 0.00000000)
		(0.25139665 0.48133503 0.00000000)
		(0.26815642 0.49021672 0.00000000)
		(0.28491620 0.49913364 0.00000000)
		(0.30167598 0.50805368 0.00000000)
		(0.31843575 0.51694471 0.00000000)
		(0.33519553 0.52577473 0.00000000)
		(0.35195531 0.53451193 0.00000000)
		(0.36871508 0.54312485 0.00000000)
		(0.38547486 0.55158248 0.00000000)
		(0.40223464 0.55985436 0.00000000)
		(0.41899441 0.56791070 0.00000000)
		(0.43575419 0.57572250 0.00000000)
		(0.45251397 0.58326161 0.00000000)
		(0.46927374 0.59050090 0.00000000)
		(0.48603352 0.59741429 0.00000000)
		(0.50279330 0.60397689 0.00000000)
		(0.51955307 0.61016506 0.00000000)
		(0.53631285 0.61595653 0.00000000)
		(0.55307263 0.62133043 0.00000000)
		(0.56983240 0.62626742 0.00000000)
		(0.58659218 0.63074971 0.00000000)
		(0.60335196 0.63476117 0.00000000)
		(0.62011173 0.63828736 0.00000000)
		(0.63687151 0.64131556 0.00000000)
		(0.65363128 0.64383489 0.00000000)
		(0.67039106 0.64583626 0.00000000)
		(0.68715084 0.64731247 0.00000000)
		(0.70391061 0.64825820 0.00000000)
		(0.72067039 0.64867005 0.00000000)
		(0.73743017 0.64854653 0.00000000)
		(0.75418994 0.64788810 0.00000000)
		(0.77094972 0.64669711 0.00000000)
		(0.78770950 0.64497786 0.00000000)
		(0.80446927 0.64273655 0.00000000)
		(0.82122905 0.63998123 0.00000000)
		(0.83798883 0.63672184 0.00000000)
		(0.85474860 0.63297011 0.00000000)
		(0.87150838 0.62873955 0.00000000)
		(0.88826816 0.62404539 0.00000000)
		(0.90502793 0.61890454 0.00000000)
		(0.92178771 0.61333552 0.00000000)
		(0.93854749 0.60735837 0.00000000)
		(0.95530726 0.60099461 0.00000000)
		(0.97206704 0.59426718 0.00000000)
		(0.98882682 0.58720028 0.00000000)
		(1.00558659 0.57981938 0.00000000)
		(1.02234637 0.57215104 0.00000000)
		(1.03910615 0.56422288 0.00000000)
		(1.05586592 0.55606345 0.00000000)
		(1.07262570 0.54770214 0.00000000)
		(1.08938547 0.53916905 0.00000000)
		(1.10614525 0.53049492 0.00000000)
		(1.12290503 0.52171097 0.00000000)
		(1.13966480 0.51284883 0.00000000)
		(1.15642458 0.50394043 0.00000000)
		(1.17318436 0.49501784 0.00000000)
		(1.18994413 0.48611319 0.00000000)
		(1.20670391 0.47725855 0.00000000)
		(1.22346369 0.46848580 0.00000000)
		(1.24022346 0.45982653 0.00000000)
		(1.25698324 0.45131193 0.00000000)
		(1.27374302 0.44297265 0.00000000)
		(1.29050279 0.43483874 0.00000000)
		(1.30726257 0.42693947 0.00000000)
		(1.32402235 0.41930329 0.00000000)
		(1.34078212 0.41195771 0.00000000)
		(1.35754190 0.40492917 0.00000000)
		(1.37430168 0.39824298 0.00000000)
		(1.39106145 0.39192322 0.00000000)
		(1.40782123 0.38599265 0.00000000)
		(1.42458101 0.38047262 0.00000000)
		(1.44134078 0.37538302 0.00000000)
		(1.45810056 0.37074216 0.00000000)
		(1.47486034 0.36656677 0.00000000)
		(1.49162011 0.36287187 0.00000000)
		(1.50837989 0.35967078 0.00000000)
		(1.52513966 0.35697502 0.00000000)
		(1.54189944 0.35479429 0.00000000)
		(1.55865922 0.35313646 0.00000000)
		(1.57541899 0.35200748 0.00000000)
		(1.59217877 0.35141143 0.00000000)
		(1.60893855 0.35135045 0.00000000)
		(1.62569832 0.35182476 0.00000000)
		(1.64245810 0.35283266 0.00000000)
		(1.65921788 0.35437051 0.00000000)
		(1.67597765 0.35643278 0.00000000)
		(1.69273743 0.35901204 0.00000000)
		(1.70949721 0.36209900 0.00000000)
		(1.72625698 0.36568254 0.00000000)
		(1.74301676 0.36974977 0.00000000)
		(1.75977654 0.37428603 0.00000000)
		(1.77653631 0.37927499 0.00000000)
		(1.79329609 0.38469869 0.00000000)
		(1.81005587 0.39053759 0.00000000)
		(1.82681564 0.39677067 0.00000000)
		(1.84357542 0.40337548 0.00000000)
		(1.86033520 0.41032823 0.00000000)
		(1.87709497 0.41760390 0.00000000)
		(1.89385475 0.42517628 0.00000000)
		(1.91061453 0.43301810 0.00000000)
		(1.92737430 0.44110113 0.00000000)
		(1.94413408 0.44939625 0.00000000)
		(1.96089385 0.45787360 0.00000000)
		(1.97765363 0.46650264 0.00000000)
		(1.99441341 0.47525231 0.00000000)
		(2.01117318 0.48409110 0.00000000)
		(2.02793296 0.49298718 0.00000000)
		(2.04469274 0.50190851 0.00000000)
		(2.06145251 0.51082297 0.00000000)
		(2.07821229 0.51969845 0.00000000)
		(2.09497207 0.52850300 0.00000000)
		(2.11173184 0.53720491 0.00000000)
		(2.12849162 0.54577284 0.00000000)
		(2.14525140 0.55417595 0.00000000)
		(2.16201117 0.56238396 0.00000000)
		(2.17877095 0.57036733 0.00000000)
		(2.19553073 0.57809730 0.00000000)
		(2.21229050 0.58554604 0.00000000)
		(2.22905028 0.59268673 0.00000000)
		(2.24581006 0.59949365 0.00000000)
		(2.26256983 0.60594229 0.00000000)
		(2.27932961 0.61200943 0.00000000)
		(2.29608939 0.61767322 0.00000000)
		(2.31284916 0.62291326 0.00000000)
		(2.32960894 0.62771069 0.00000000)
		(2.34636872 0.63204823 0.00000000)
		(2.36312849 0.63591026 0.00000000)
		(2.37988827 0.63928288 0.00000000)
		(2.39664804 0.64215393 0.00000000)
		(2.41340782 0.64451308 0.00000000)
		(2.43016760 0.64635183 0.00000000)
		(2.44692737 0.64766357 0.00000000)
		(2.46368715 0.64844357 0.00000000)
		(2.48044693 0.64868901 0.00000000)