/*--------------------------------*- C++ -*----------------------------------*\\
/*--------------------------------*- C++ -*----------------------------------*\\
| =========                 |                                                 |
| \\\\      /  F ield         | OpenFOAM: The Open Source CFD Toolbox           |
|  \\\\    /   O peration     | Version:  v2012                                 |
|   \\\\  /    A nd           | Website:  www.openfoam.com                      |
|    \\\\/     M anipulation  |                                                 |
\\*---------------------------------------------------------------------------*/
FoamFile
{
    version     2.0;
    format      ascii;
    class       dictionary;
    object      blockMeshDict;
}
// * * * * * * * * * * * * * * * * * * * * * * * * * * * * * * * * * * * * * //

scale   0.01;

xmin -1;
xmax 5;
ymin 0;
ymax 0.5;
zmin 0;
zmax 0.1;

vertices
(
    (-1.00000000 -0.11922140 0.00000000)
    (4.00000000 -0.24962943 0.00000000)
    (4.00000000 0.25037057 0.00000000)
    (-1.00000000 0.38077860 0.00000000)
    (-1.00000000 -0.11922140 0.10000000)
    (4.00000000 -0.24962943 0.10000000)
    (4.00000000 0.25037057 0.10000000)
    (-1.00000000 0.38077860 0.10000000)
);

blocks
(
    hex (0 1 2 3 4 5 6 7) (200 20 1) simpleGrading (1 1 1)
);

edges
(
	polyLine 0 1
	(
		(-1.00000000 -0.11922140 0.00000000)
		(-0.98000000 -0.11922140 0.00000000)
		(-0.96000000 -0.11922140 0.00000000)
		(-0.94000000 -0.11922140 0.00000000)
		(-0.92000000 -0.11922140 0.00000000)
		(-0.90000000 -0.11922140 0.00000000)
		(-0.88000000 -0.11922140 0.00000000)
		(-0.86000000 -0.11922140 0.00000000)
		(-0.84000000 -0.11922140 0.00000000)
		(-0.82000000 -0.11922140 0.00000000)
		(-0.80000000 -0.11922140 0.00000000)
		(-0.78000000 -0.11922140 0.00000000)
		(-0.76000000 -0.11922140 0.00000000)
		(-0.74000000 -0.11922140 0.00000000)
		(-0.72000000 -0.11922140 0.00000000)
		(-0.70000000 -0.11922140 0.00000000)
		(-0.68000000 -0.11922140 0.00000000)
		(-0.66000000 -0.11922140 0.00000000)
		(-0.64000000 -0.11922140 0.00000000)
		(-0.62000000 -0.11922140 0.00000000)
		(-0.60000000 -0.11922140 0.00000000)
		(-0.58000000 -0.11922140 0.00000000)
		(-0.56000000 -0.11922140 0.00000000)
		(-0.54000000 -0.11922140 0.00000000)
		(-0.52000000 -0.11922140 0.00000000)
		(-0.50000000 -0.11922140 0.00000000)
		(-0.48000000 -0.11922140 0.00000000)
		(-0.46000000 -0.11922140 0.00000000)
		(-0.44000000 -0.11922140 0.00000000)
		(-0.42000000 -0.11922140 0.00000000)
		(-0.40000000 -0.11922140 0.00000000)
		(-0.38000000 -0.11922140 0.00000000)
		(-0.36000000 -0.11922140 0.00000000)
		(-0.34000000 -0.11922140 0.00000000)
		(-0.32000000 -0.11922140 0.00000000)
		(-0.30000000 -0.11922140 0.00000000)
		(-0.28000000 -0.11922140 0.00000000)
		(-0.26000000 -0.11922140 0.00000000)
		(-0.24000000 -0.11922140 0.00000000)
		(-0.22000000 -0.11922140 0.00000000)
		(-0.20000000 -0.11922140 0.00000000)
		(-0.18000000 -0.11922140 0.00000000)
		(-0.16000000 -0.11922140 0.00000000)
		(-0.14000000 -0.11922140 0.00000000)
		(-0.12000000 -0.11922140 0.00000000)
		(-0.10000000 -0.11922140 0.00000000)
		(-0.08162011 -0.11847087 0.00000000)
		(-0.06324022 -0.11621926 0.00000000)
		(-0.04486034 -0.11246660 0.00000000)
		(-0.02648045 -0.10721286 0.00000000)
		(-0.00810056 -0.10045806 0.00000000)
		(0.01027933 -0.09220220 0.00000000)
		(0.02865922 -0.08244526 0.00000000)
		(0.04703911 -0.07118726 0.00000000)
		(0.06541899 -0.05842819 0.00000000)
		(0.08379888 -0.04416806 0.00000000)
		(0.10055866 -0.02836473 0.00000000)
		(0.11731844 -0.01244561 0.00000000)
		(0.13407821 0.00352430 0.00000000)
		(0.15083799 0.01947983 0.00000000)
		(0.16759777 0.03535585 0.00000000)
		(0.18435754 0.05108754 0.00000000)
		(0.20111732 0.06661070 0.00000000)
		(0.21787709 0.08186196 0.00000000)
		(0.23463687 0.09677907 0.00000000)
		(0.25139665 0.11130114 0.00000000)
		(0.26815642 0.12536888 0.00000000)
		(0.28491620 0.13892488 0.00000000)
		(0.30167598 0.15191379 0.00000000)
		(0.31843575 0.16428261 0.00000000)
		(0.33519553 0.17598085 0.00000000)
		(0.35195531 0.18696074 0.00000000)
		(0.36871508 0.19717748 0.00000000)
		(0.38547486 0.20658936 0.00000000)
		(0.40223464 0.21515795 0.00000000)
		(0.41899441 0.22284829 0.00000000)
		(0.43575419 0.22962899 0.00000000)
		(0.45251397 0.23547236 0.00000000)
		(0.46927374 0.24035455 0.00000000)
		(0.48603352 0.24425563 0.00000000)
		(0.50279330 0.24715969 0.00000000)
		(0.51955307 0.24905486 0.00000000)
		(0.53631285 0.24993341 0.00000000)
		(0.55307263 0.24979175 0.00000000)
		(0.56983240 0.24863047 0.00000000)
		(0.58659218 0.24645430 0.00000000)
		(0.60335196 0.24327212 0.00000000)
		(0.62011173 0.23909693 0.00000000)
		(0.63687151 0.23394577 0.00000000)
		(0.65363128 0.22783966 0.00000000)
		(0.67039106 0.22080353 0.00000000)
		(0.68715084 0.21286610 0.00000000)
		(0.70391061 0.20405976 0.00000000)
		(0.72067039 0.19442048 0.00000000)
		(0.73743017 0.18398758 0.00000000)
		(0.75418994 0.17280367 0.00000000)
		(0.77094972 0.16091439 0.00000000)
		(0.78770950 0.14836826 0.00000000)
		(0.80446927 0.13521651 0.00000000)
		(0.82122905 0.12151282 0.00000000)
		(0.83798883 0.10731313 0.00000000)
		(0.85474860 0.09267539 0.00000000)
		(0.87150838 0.07765936 0.00000000)
		(0.88826816 0.06232633 0.00000000)
		(0.90502793 0.04673889 0.00000000)
		(0.92178771 0.03096067 0.00000000)
		(0.93854749 0.01505606 0.00000000)
		(0.95530726 -0.00091000 0.00000000)
		(0.97206704 -0.01687234 0.00000000)
		(0.98882682 -0.03276582 0.00000000)
		(1.00558659 -0.04852554 0.00000000)
		(1.02234637 -0.06408719 0.00000000)
		(1.03910615 -0.07938725 0.00000000)
		(1.05586592 -0.09436325 0.00000000)
		(1.07262570 -0.10895406 0.00000000)
		(1.08938547 -0.12310014 0.00000000)
		(1.10614525 -0.13674373 0.00000000)
		(1.12290503 -0.14982915 0.00000000)
		(1.13966480 -0.16230298 0.00000000)
		(1.15642458 -0.17411430 0.00000000)
		(1.17318436 -0.18521490 0.00000000)
		(1.18994413 -0.19555947 0.00000000)
		(1.20670391 -0.20510579 0.00000000)
		(1.22346369 -0.21381488 0.00000000)
		(1.24022346 -0.22165119 0.00000000)
		(1.25698324 -0.22858275 0.00000000)
		(1.27374302 -0.23458125 0.00000000)
		(1.29050279 -0.23962221 0.00000000)
		(1.30726257 -0.24368506 0.00000000)
		(1.32402235 -0.24675320 0.00000000)
		(1.34078212 -0.24881412 0.00000000)
		(1.35754190 -0.24985940 0.00000000)
		(1.37430168 -0.24988478 0.00000000)
		(1.39106145 -0.24889015 0.00000000)
		(1.40782123 -0.24687957 0.00000000)
		(1.42458101 -0.24386126 0.00000000)
		(1.44134078 -0.23984752 0.00000000)
		(1.45810056 -0.23485474 0.00000000)
		(1.47486034 -0.22890331 0.00000000)
		(1.49162011 -0.22201752 0.00000000)
		(1.50837989 -0.21422547 0.00000000)
		(1.52513966 -0.20555897 0.00000000)
		(1.54189944 -0.19605339 0.00000000)
		(1.55865922 -0.18574755 0.00000000)
		(1.57541899 -0.17468350 0.00000000)
		(1.59217877 -0.16290640 0.00000000)
		(1.60893855 -0.15046434 0.00000000)
		(1.62569832 -0.13740809 0.00000000)
		(1.64245810 -0.12379096 0.00000000)
		(1.65921788 -0.10966852 0.00000000)
		(1.67597765 -0.09509843 0.00000000)
		(1.69273743 -0.08014015 0.00000000)
		(1.70949721 -0.06485475 0.00000000)
		(1.72625698 -0.04930461 0.00000000)
		(1.74301676 -0.03355322 0.00000000)
		(1.75977654 -0.01766487 0.00000000)
		(1.77653631 -0.00170441 0.00000000)
		(1.79329609 0.01426301 0.00000000)
		(1.81005587 0.03017220 0.00000000)
		(1.82681564 0.04595824 0.00000000)
		(1.84357542 0.06155668 0.00000000)
		(1.86033520 0.07690385 0.00000000)
		(1.87709497 0.09193710 0.00000000)
		(1.89385475 0.10659508 0.00000000)
		(1.91061453 0.12081794 0.00000000)
		(1.92737430 0.13454763 0.00000000)
		(1.94413408 0.14772812 0.00000000)
		(1.96089385 0.16030559 0.00000000)
		(1.97765363 0.17222871 0.00000000)
		(1.99441341 0.18344880 0.00000000)
		(2.01117318 0.19392008 0.00000000)
		(2.02793296 0.20359978 0.00000000)
		(2.04469274 0.21244842 0.00000000)
		(2.06145251 0.22042985 0.00000000)
		(2.07821229 0.22751151 0.00000000)
		(2.09497207 0.23366449 0.00000000)
		(2.11173184 0.23886367 0.00000000)
		(2.12849162 0.24308783 0.00000000)
		(2.14525140 0.24631973 0.00000000)
		(2.16201117 0.24854617 0.00000000)
		(2.17877095 0.24975807 0.00000000)
		(2.19553073 0.24995048 0.00000000)
		(2.21229050 0.24912261 0.00000000)
		(2.22905028 0.24727785 0.00000000)
		(2.24581006 0.24442372 0.00000000)
		(2.26256983 0.24057187 0.00000000)
		(2.27932961 0.23573803 0.00000000)
		(2.29608939 0.22994193 0.00000000)
		(2.31284916 0.22320723 0.00000000)
		(2.32960894 0.21556141 0.00000000)
		(2.34636872 0.20703569 0.00000000)
		(2.36312849 0.19766487 0.00000000)
		(2.37988827 0.18748720 0.00000000)
		(2.39664804 0.17654422 0.00000000)
		(2.41340782 0.16488060 0.00000000)
		(2.43016760 0.15254396 0.00000000)
		(2.44692737 0.13958464 0.00000000)
		(2.46368715 0.12605556 0.00000000)
		(2.48044693 0.11201192 0.00000000)
		(2.49720670 0.09751107 0.00000000)
		(2.51396648 0.08261218 0.00000000)
		(2.53072626 0.06737607 0.00000000)
		(2.54748603 0.05186494 0.00000000)
		(2.56424581 0.03614211 0.00000000)
		(2.58100559 0.02027174 0.00000000)
		(2.59776536 0.00431863 0.00000000)
		(2.61452514 -0.01165211 0.00000000)
		(2.63128492 -0.02757529 0.00000000)
		(2.64804469 -0.04338591 0.00000000)
		(2.66480447 -0.05901943 0.00000000)
		(2.68156425 -0.07441204 0.00000000)
		(2.69832402 -0.08950090 0.00000000)
		(2.71508380 -0.10422443 0.00000000)
		(2.73184358 -0.11852253 0.00000000)
		(2.74860335 -0.13233682 0.00000000)
		(2.76536313 -0.14561093 0.00000000)
		(2.78212291 -0.15829067 0.00000000)
		(2.79888268 -0.17032428 0.00000000)
		(2.81564246 -0.18166264 0.00000000)
		(2.83240223 -0.19225947 0.00000000)
		(2.84916201 -0.20207152 0.00000000)
		(2.86592179 -0.21105872 0.00000000)
		(2.88268156 -0.21918440 0.00000000)
		(2.89944134 -0.22641540 0.00000000)
		(2.91620112 -0.23272218 0.00000000)
		(2.93296089 -0.23807901 0.00000000)
		(2.95166480 -0.24027359 0.00000000)
		(2.97036872 -0.24223716 0.00000000)
		(2.98907263 -0.24396972 0.00000000)
		(3.00777654 -0.24547128 0.00000000)
		(3.02648045 -0.24674182 0.00000000)
		(3.04518436 -0.24778136 0.00000000)
		(3.06388827 -0.24858989 0.00000000)
		(3.08259218 -0.24916741 0.00000000)
		(3.10129609 -0.24951392 0.00000000)
		(3.12000000 -0.24962943 0.00000000)
		(3.14000000 -0.24962943 0.00000000)
		(3.16000000 -0.24962943 0.00000000)
		(3.18000000 -0.24962943 0.00000000)
		(3.20000000 -0.24962943 0.00000000)
		(3.22000000 -0.24962943 0.00000000)
		(3.24000000 -0.24962943 0.00000000)
		(3.26000000 -0.24962943 0.00000000)
		(3.28000000 -0.24962943 0.00000000)
		(3.30000000 -0.24962943 0.00000000)
		(3.32000000 -0.24962943 0.00000000)
		(3.34000000 -0.24962943 0.00000000)
		(3.36000000 -0.24962943 0.00000000)
		(3.38000000 -0.24962943 0.00000000)
		(3.40000000 -0.24962943 0.00000000)
		(3.42000000 -0.24962943 0.00000000)
		(3.44000000 -0.24962943 0.00000000)
		(3.46000000 -0.24962943 0.00000000)
		(3.48000000 -0.24962943 0.00000000)
		(3.50000000 -0.24962943 0.00000000)
		(3.52000000 -0.24962943 0.00000000)
		(3.54000000 -0.24962943 0.00000000)
		(3.56000000 -0.24962943 0.00000000)
		(3.58000000 -0.24962943 0.00000000)
		(3.60000000 -0.24962943 0.00000000)
		(3.62000000 -0.24962943 0.00000000)
		(3.64000000 -0.24962943 0.00000000)
		(3.66000000 -0.24962943 0.00000000)
		(3.68000000 -0.24962943 0.00000000)
		(3.70000000 -0.24962943 0.00000000)
		(3.72000000 -0.24962943 0.00000000)
		(3.74000000 -0.24962943 0.00000000)
		(3.76000000 -0.24962943 0.00000000)
		(3.78000000 -0.24962943 0.00000000)
		(3.80000000 -0.24962943 0.00000000)
		(3.82000000 -0.24962943 0.00000000)
		(3.84000000 -0.24962943 0.00000000)
		(3.86000000 -0.24962943 0.00000000)
		(3.88000000 -0.24962943 0.00000000)
		(3.90000000 -0.24962943 0.00000000)
		(3.92000000 -0.24962943 0.00000000)
		(3.94000000 -0.24962943 0.00000000)
		(3.96000000 -0.24962943 0.00000000)
		(3.98000000 -0.24962943 0.00000000)
		(4.00000000 -0.24962943 0.00000000)
	)
	polyLine 4 5
	(
		(-1.00000000 -0.11922140 0.10000000)
		(-0.98000000 -0.11922140 0.10000000)
		(-0.96000000 -0.11922140 0.10000000)
		(-0.94000000 -0.11922140 0.10000000)
		(-0.92000000 -0.11922140 0.10000000)
		(-0.90000000 -0.11922140 0.10000000)
		(-0.88000000 -0.11922140 0.10000000)
		(-0.86000000 -0.11922140 0.10000000)
		(-0.84000000 -0.11922140 0.10000000)
		(-0.82000000 -0.11922140 0.10000000)
		(-0.80000000 -0.11922140 0.10000000)
		(-0.78000000 -0.11922140 0.10000000)
		(-0.76000000 -0.11922140 0.10000000)
		(-0.74000000 -0.11922140 0.10000000)
		(-0.72000000 -0.11922140 0.10000000)
		(-0.70000000 -0.11922140 0.10000000)
		(-0.68000000 -0.11922140 0.10000000)
		(-0.66000000 -0.11922140 0.10000000)
		(-0.64000000 -0.11922140 0.10000000)
		(-0.62000000 -0.11922140 0.10000000)
		(-0.60000000 -0.11922140 0.10000000)
		(-0.58000000 -0.11922140 0.10000000)
		(-0.56000000 -0.11922140 0.10000000)
		(-0.54000000 -0.11922140 0.10000000)
		(-0.52000000 -0.11922140 0.10000000)
		(-0.50000000 -0.11922140 0.10000000)
		(-0.48000000 -0.11922140 0.10000000)
		(-0.46000000 -0.11922140 0.10000000)
		(-0.44000000 -0.11922140 0.10000000)
		(-0.42000000 -0.11922140 0.10000000)
		(-0.40000000 -0.11922140 0.10000000)
		(-0.38000000 -0.11922140 0.10000000)
		(-0.36000000 -0.11922140 0.10000000)
		(-0.34000000 -0.11922140 0.10000000)
		(-0.32000000 -0.11922140 0.10000000)
		(-0.30000000 -0.11922140 0.10000000)
		(-0.28000000 -0.11922140 0.10000000)
		(-0.26000000 -0.11922140 0.10000000)
		(-0.24000000 -0.11922140 0.10000000)
		(-0.22000000 -0.11922140 0.10000000)
		(-0.20000000 -0.11922140 0.10000000)
		(-0.18000000 -0.11922140 0.10000000)
		(-0.16000000 -0.11922140 0.10000000)
		(-0.14000000 -0.11922140 0.10000000)
		(-0.12000000 -0.11922140 0.10000000)
		(-0.10000000 -0.11922140 0.10000000)
		(-0.08162011 -0.11847087 0.10000000)
		(-0.06324022 -0.11621926 0.10000000)
		(-0.04486034 -0.11246660 0.10000000)
		(-0.02648045 -0.10721286 0.10000000)
		(-0.00810056 -0.10045806 0.10000000)
		(0.01027933 -0.09220220 0.10000000)
		(0.02865922 -0.08244526 0.10000000)
		(0.04703911 -0.07118726 0.10000000)
		(0.06541899 -0.05842819 0.10000000)
		(0.08379888 -0.04416806 0.10000000)
		(0.10055866 -0.02836473 0.10000000)
		(0.11731844 -0.01244561 0.10000000)
		(0.13407821 0.00352430 0.10000000)
		(0.15083799 0.01947983 0.10000000)
		(0.16759777 0.03535585 0.10000000)
		(0.18435754 0.05108754 0.10000000)
		(0.20111732 0.06661070 0.10000000)
		(0.21787709 0.08186196 0.10000000)
		(0.23463687 0.09677907 0.10000000)
		(0.25139665 0.11130114 0.10000000)
		(0.26815642 0.12536888 0.10000000)
		(0.28491620 0.13892488 0.10000000)
		(0.30167598 0.15191379 0.10000000)
		(0.31843575 0.16428261 0.10000000)
		(0.33519553 0.17598085 0.10000000)
		(0.35195531 0.18696074 0.10000000)
		(0.36871508 0.19717748 0.10000000)
		(0.38547486 0.20658936 0.10000000)
		(0.40223464 0.21515795 0.10000000)
		(0.41899441 0.22284829 0.10000000)
		(0.43575419 0.22962899 0.10000000)
		(0.45251397 0.23547236 0.10000000)
		(0.46927374 0.24035455 0.10000000)
		(0.48603352 0.24425563 0.10000000)
		(0.50279330 0.24715969 0.10000000)
		(0.51955307 0.24905486 0.10000000)
		(0.53631285 0.24993341 0.10000000)
		(0.55307263 0.24979175 0.10000000)
		(0.56983240 0.24863047 0.10000000)
		(0.58659218 0.24645430 0.10000000)
		(0.60335196 0.24327212 0.10000000)
		(0.62011173 0.23909693 0.10000000)
		(0.63687151 0.23394577 0.10000000)
		(0.65363128 0.22783966 0.10000000)
		(0.67039106 0.22080353 0.10000000)
		(0.68715084 0.21286610 0.10000000)
		(0.70391061 0.20405976 0.10000000)
		(0.72067039 0.19442048 0.10000000)
		(0.73743017 0.18398758 0.10000000)
		(0.75418994 0.17280367 0.10000000)
		(0.77094972 0.16091439 0.10000000)
		(0.78770950 0.14836826 0.10000000)
		(0.80446927 0.13521651 0.10000000)
		(0.82122905 0.12151282 0.10000000)
		(0.83798883 0.10731313 0.10000000)
		(0.85474860 0.09267539 0.10000000)
		(0.87150838 0.07765936 0.10000000)
		(0.88826816 0.06232633 0.10000000)
		(0.90502793 0.04673889 0.10000000)
		(0.92178771 0.03096067 0.10000000)
		(0.93854749 0.01505606 0.10000000)
		(0.95530726 -0.00091000 0.10000000)
		(0.97206704 -0.01687234 0.10000000)
		(0.98882682 -0.03276582 0.10000000)
		(1.00558659 -0.04852554 0.10000000)
		(1.02234637 -0.06408719 0.10000000)
		(1.03910615 -0.07938725 0.10000000)
		(1.05586592 -0.09436325 0.10000000)
		(1.07262570 -0.10895406 0.10000000)
		(1.08938547 -0.12310014 0.10000000)
		(1.10614525 -0.13674373 0.10000000)
		(1.12290503 -0.14982915 0.10000000)
		(1.13966480 -0.16230298 0.10000000)
		(1.15642458 -0.17411430 0.10000000)
		(1.17318436 -0.18521490 0.10000000)
		(1.18994413 -0.19555947 0.10000000)
		(1.20670391 -0.20510579 0.10000000)
		(1.22346369 -0.21381488 0.10000000)
		(1.24022346 -0.22165119 0.10000000)
		(1.25698324 -0.22858275 0.10000000)
		(1.27374302 -0.23458125 0.10000000)
		(1.29050279 -0.23962221 0.10000000)
		(1.30726257 -0.24368506 0.10000000)
		(1.32402235 -0.24675320 0.10000000)
		(1.34078212 -0.24881412 0.10000000)
		(1.35754190 -0.24985940 0.10000000)
		(1.37430168 -0.24988478 0.10000000)
		(1.39106145 -0.24889015 0.10000000)
		(1.40782123 -0.24687957 0.10000000)
		(1.42458101 -0.24386126 0.10000000)
		(1.44134078 -0.23984752 0.10000000)
		(1.45810056 -0.23485474 0.10000000)
		(1.47486034 -0.22890331 0.10000000)
		(1.49162011 -0.22201752 0.10000000)
		(1.50837989 -0.21422547 0.10000000)
		(1.52513966 -0.20555897 0.10000000)
		(1.54189944 -0.19605339 0.10000000)
		(1.55865922 -0.18574755 0.10000000)
		(1.57541899 -0.17468350 0.10000000)
		(1.59217877 -0.16290640 0.10000000)
		(1.60893855 -0.15046434 0.10000000)
		(1.62569832 -0.13740809 0.10000000)
		(1.64245810 -0.12379096 0.10000000)
		(1.65921788 -0.10966852 0.10000000)
		(1.67597765 -0.09509843 0.10000000)
		(1.69273743 -0.08014015 0.10000000)
		(1.70949721 -0.06485475 0.10000000)
		(1.72625698 -0.04930461 0.10000000)
		(1.74301676 -0.03355322 0.10000000)
		(1.75977654 -0.01766487 0.10000000)
		(1.77653631 -0.00170441 0.10000000)
		(1.79329609 0.01426301 0.10000000)
		(1.81005587 0.03017220 0.10000000)
		(1.82681564 0.04595824 0.10000000)
		(1.84357542 0.06155668 0.10000000)
		(1.86033520 0.07690385 0.10000000)
		(1.87709497 0.09193710 0.10000000)
		(1.89385475 0.10659508 0.10000000)
		(1.91061453 0.12081794 0.10000000)
		(1.92737430 0.13454763 0.10000000)
		(1.94413408 0.14772812 0.10000000)
		(1.96089385 0.16030559 0.10000000)
		(1.97765363 0.17222871 0.10000000)
		(1.99441341 0.18344880 0.10000000)
		(2.01117318 0.19392008 0.10000000)
		(2.02793296 0.20359978 0.10000000)
		(2.04469274 0.21244842 0.10000000)
		(2.06145251 0.22042985 0.10000000)
		(2.07821229 0.22751151 0.10000000)
		(2.09497207 0.23366449 0.10000000)
		(2.11173184 0.23886367 0.10000000)
		(2.12849162 0.24308783 0.10000000)
		(2.14525140 0.24631973 0.10000000)
		(2.16201117 0.24854617 0.10000000)
		(2.17877095 0.24975807 0.10000000)
		(2.19553073 0.24995048 0.10000000)
		(2.21229050 0.24912261 0.10000000)
		(2.22905028 0.24727785 0.10000000)
		(2.24581006 0.24442372 0.10000000)
		(2.26256983 0.24057187 0.10000000)
		(2.27932961 0.23573803 0.10000000)
		(2.29608939 0.22994193 0.10000000)
		(2.31284916 0.22320723 0.10000000)
		(2.32960894 0.21556141 0.10000000)
		(2.34636872 0.20703569 0.10000000)
		(2.36312849 0.19766487 0.10000000)
		(2.37988827 0.18748720 0.10000000)
		(2.39664804 0.17654422 0.10000000)
		(2.41340782 0.16488060 0.10000000)
		(2.43016760 0.15254396 0.10000000)
		(2.44692737 0.13958464 0.10000000)
		(2.46368715 0.12605556 0.10000000)
		(2.48044693 0.11201192 0.10000000)
		(2.49720670 0.09751107 0.10000000)
		(2.51396648 0.08261218 0.10000000)
		(2.53072626 0.06737607 0.10000000)
		(2.54748603 0.05186494 0.10000000)
		(2.56424581 0.03614211 0.10000000)
		(2.58100559 0.02027174 0.10000000)
		(2.59776536 0.00431863 0.10000000)
		(2.61452514 -0.01165211 0.10000000)
		(2.63128492 -0.02757529 0.10000000)
		(2.64804469 -0.04338591 0.10000000)
		(2.66480447 -0.05901943 0.10000000)
		(2.68156425 -0.07441204 0.10000000)
		(2.69832402 -0.08950090 0.10000000)
		(2.71508380 -0.10422443 0.10000000)
		(2.73184358 -0.11852253 0.10000000)
		(2.74860335 -0.13233682 0.10000000)
		(2.76536313 -0.14561093 0.10000000)
		(2.78212291 -0.15829067 0.10000000)
		(2.79888268 -0.17032428 0.10000000)
		(2.81564246 -0.18166264 0.10000000)
		(2.83240223 -0.19225947 0.10000000)
		(2.84916201 -0.20207152 0.10000000)
		(2.86592179 -0.21105872 0.10000000)
		(2.88268156 -0.21918440 0.10000000)
		(2.89944134 -0.22641540 0.10000000)
		(2.91620112 -0.23272218 0.10000000)
		(2.93296089 -0.23807901 0.10000000)
		(2.95166480 -0.24027359 0.10000000)
		(2.97036872 -0.24223716 0.10000000)
		(2.98907263 -0.24396972 0.10000000)
		(3.00777654 -0.24547128 0.10000000)
		(3.02648045 -0.24674182 0.10000000)
		(3.04518436 -0.24778136 0.10000000)
		(3.06388827 -0.24858989 0.10000000)
		(3.08259218 -0.24916741 0.10000000)
		(3.10129609 -0.24951392 0.10000000)
		(3.12000000 -0.24962943 0.10000000)
		(3.14000000 -0.24962943 0.10000000)
		(3.16000000 -0.24962943 0.10000000)
		(3.18000000 -0.24962943 0.10000000)
		(3.20000000 -0.24962943 0.10000000)
		(3.22000000 -0.24962943 0.10000000)
		(3.24000000 -0.24962943 0.10000000)
		(3.26000000 -0.24962943 0.10000000)
		(3.28000000 -0.24962943 0.10000000)
		(3.30000000 -0.24962943 0.10000000)
		(3.32000000 -0.24962943 0.10000000)
		(3.34000000 -0.24962943 0.10000000)
		(3.36000000 -0.24962943 0.10000000)
		(3.38000000 -0.24962943 0.10000000)
		(3.40000000 -0.24962943 0.10000000)
		(3.42000000 -0.24962943 0.10000000)
		(3.44000000 -0.24962943 0.10000000)
		(3.46000000 -0.24962943 0.10000000)
		(3.48000000 -0.24962943 0.10000000)
		(3.50000000 -0.24962943 0.10000000)
		(3.52000000 -0.24962943 0.10000000)
		(3.54000000 -0.24962943 0.10000000)
		(3.56000000 -0.24962943 0.10000000)
		(3.58000000 -0.24962943 0.10000000)
		(3.60000000 -0.24962943 0.10000000)
		(3.62000000 -0.24962943 0.10000000)
		(3.64000000 -0.24962943 0.10000000)
		(3.66000000 -0.24962943 0.10000000)
		(3.68000000 -0.24962943 0.10000000)
		(3.70000000 -0.24962943 0.10000000)
		(3.72000000 -0.24962943 0.10000000)
		(3.74000000 -0.24962943 0.10000000)
		(3.76000000 -0.24962943 0.10000000)
		(3.78000000 -0.24962943 0.10000000)
		(3.80000000 -0.24962943 0.10000000)
		(3.82000000 -0.24962943 0.10000000)
		(3.84000000 -0.24962943 0.10000000)
		(3.86000000 -0.24962943 0.10000000)
		(3.88000000 -0.24962943 0.10000000)
		(3.90000000 -0.24962943 0.10000000)
		(3.92000000 -0.24962943 0.10000000)
		(3.94000000 -0.24962943 0.10000000)
		(3.96000000 -0.24962943 0.10000000)
		(3.98000000 -0.24962943 0.10000000)
		(4.00000000 -0.24962943 0.10000000)
	)
	polyLine 3 2
	(
		(-1.00000000 0.38077860 0.00000000)
		(-0.98000000 0.37869439 0.00000000)
		(-0.96000000 0.37661019 0.00000000)
		(-0.94000000 0.37452598 0.00000000)
		(-0.92000000 0.37244177 0.00000000)
		(-0.90000000 0.37035756 0.00000000)
		(-0.88000000 0.36827335 0.00000000)
		(-0.86000000 0.36618914 0.00000000)
		(-0.84000000 0.36410494 0.00000000)
		(-0.82000000 0.36202073 0.00000000)
		(-0.80000000 0.35993652 0.00000000)
		(-0.78000000 0.35785231 0.00000000)
		(-0.76000000 0.35576810 0.00000000)
		(-0.74000000 0.35368390 0.00000000)
		(-0.72000000 0.35159969 0.00000000)
		(-0.70000000 0.34951548 0.00000000)
		(-0.68000000 0.34743127 0.00000000)
		(-0.66000000 0.34534706 0.00000000)
		(-0.64000000 0.34326285 0.00000000)
		(-0.62000000 0.34117865 0.00000000)
		(-0.60000000 0.33909444 0.00000000)
		(-0.58000000 0.33701023 0.00000000)
		(-0.56000000 0.33492602 0.00000000)
		(-0.54000000 0.33284181 0.00000000)
		(-0.52000000 0.33075761 0.00000000)
		(-0.50000000 0.32867340 0.00000000)
		(-0.48000000 0.32658919 0.00000000)
		(-0.46000000 0.32450498 0.00000000)
		(-0.44000000 0.32242077 0.00000000)
		(-0.42000000 0.32033657 0.00000000)
		(-0.40000000 0.31825236 0.00000000)
		(-0.38000000 0.31616815 0.00000000)
		(-0.36000000 0.31408394 0.00000000)
		(-0.34000000 0.31199973 0.00000000)
		(-0.32000000 0.30991552 0.00000000)
		(-0.30000000 0.30783132 0.00000000)
		(-0.28000000 0.30574711 0.00000000)
		(-0.26000000 0.30366290 0.00000000)
		(-0.24000000 0.30157869 0.00000000)
		(-0.22000000 0.29949448 0.00000000)
		(-0.20000000 0.29741028 0.00000000)
		(-0.18000000 0.29532607 0.00000000)
		(-0.16000000 0.29324186 0.00000000)
		(-0.14000000 0.29115765 0.00000000)
		(-0.12000000 0.28907344 0.00000000)
		(-0.10000000 0.28698924 0.00000000)
		(-0.08162011 0.28459972 0.00000000)
		(-0.06324022 0.28565250 0.00000000)
		(-0.04486034 0.29014757 0.00000000)
		(-0.02648045 0.29808493 0.00000000)
		(-0.00810056 0.30946458 0.00000000)
		(0.01027933 0.32428651 0.00000000)
		(0.02865922 0.34255074 0.00000000)
		(0.04703911 0.36425726 0.00000000)
		(0.06541899 0.38940606 0.00000000)
		(0.08379888 0.41799716 0.00000000)
		(0.10055866 0.44733778 0.00000000)
		(0.11731844 0.47689336 0.00000000)
		(0.13407821 0.50654326 0.00000000)
		(0.15083799 0.53616644 0.00000000)
		(0.16759777 0.56564201 0.00000000)
		(0.18435754 0.59484962 0.00000000)
		(0.20111732 0.62367007 0.00000000)
		(0.21787709 0.65198571 0.00000000)
		(0.23463687 0.67968096 0.00000000)
		(0.25139665 0.70664276 0.00000000)
		(0.26815642 0.73276107 0.00000000)
		(0.28491620 0.75792926 0.00000000)
		(0.30167598 0.78204462 0.00000000)
		(0.31843575 0.80500869 0.00000000)
		(0.33519553 0.82672774 0.00000000)
		(0.35195531 0.84711312 0.00000000)
		(0.36871508 0.86608161 0.00000000)
		(0.38547486 0.88355579 0.00000000)
		(0.40223464 0.89946433 0.00000000)
		(0.41899441 0.91374229 0.00000000)
		(0.43575419 0.92633139 0.00000000)
		(0.45251397 0.93718024 0.00000000)
		(0.46927374 0.94624457 0.00000000)
		(0.48603352 0.95348736 0.00000000)
		(0.50279330 0.95887906 0.00000000)
		(0.51955307 0.96239765 0.00000000)
		(0.53631285 0.96402877 0.00000000)
		(0.55307263 0.96376578 0.00000000)
		(0.56983240 0.96160973 0.00000000)
		(0.58659218 0.95756943 0.00000000)
		(0.60335196 0.95166137 0.00000000)
		(0.62011173 0.94390967 0.00000000)
		(0.63687151 0.93434597 0.00000000)
		(0.65363128 0.92300931 0.00000000)
		(0.67039106 0.90994596 0.00000000)
		(0.68715084 0.89520925 0.00000000)
		(0.70391061 0.87885932 0.00000000)
		(0.72067039 0.86096293 0.00000000)
		(0.73743017 0.84159312 0.00000000)
		(0.75418994 0.82082896 0.00000000)
		(0.77094972 0.79875520 0.00000000)
		(0.78770950 0.77546195 0.00000000)
		(0.80446927 0.75104428 0.00000000)
		(0.82122905 0.72560188 0.00000000)
		(0.83798883 0.69923859 0.00000000)
		(0.85474860 0.67206202 0.00000000)
		(0.87150838 0.64418312 0.00000000)
		(0.88826816 0.61571567 0.00000000)
		(0.90502793 0.58677587 0.00000000)
		(0.92178771 0.55748187 0.00000000)
		(0.93854749 0.52795323 0.00000000)
		(0.95530726 0.49831049 0.00000000)
		(0.97206704 0.46867465 0.00000000)
		(0.98882682 0.43916667 0.00000000)
		(1.00558659 0.40990701 0.00000000)
		(1.02234637 0.38101510 0.00000000)
		(1.03910615 0.35260888 0.00000000)
		(1.05586592 0.32480429 0.00000000)
		(1.07262570 0.29771484 0.00000000)
		(1.08938547 0.27145109 0.00000000)
		(1.10614525 0.24612027 0.00000000)
		(1.12290503 0.22182576 0.00000000)
		(1.13966480 0.19866673 0.00000000)
		(1.15642458 0.17673772 0.00000000)
		(1.17318436 0.15612823 0.00000000)
		(1.18994413 0.13692240 0.00000000)
		(1.20670391 0.11919862 0.00000000)
		(1.22346369 0.10302924 0.00000000)
		(1.24022346 0.08848026 0.00000000)
		(1.25698324 0.07561106 0.00000000)
		(1.27374302 0.06447419 0.00000000)
		(1.29050279 0.05511509 0.00000000)
		(1.30726257 0.04757197 0.00000000)
		(1.32402235 0.04187563 0.00000000)
		(1.34078212 0.03804930 0.00000000)
		(1.35754190 0.03610862 0.00000000)
		(1.37430168 0.03606151 0.00000000)
		(1.39106145 0.03790815 0.00000000)
		(1.40782123 0.04164100 0.00000000)
		(1.42458101 0.04724484 0.00000000)
		(1.44134078 0.05469679 0.00000000)
		(1.45810056 0.06396642 0.00000000)
		(1.47486034 0.07501591 0.00000000)
		(1.49162011 0.08780014 0.00000000)
		(1.50837989 0.10226693 0.00000000)
		(1.52513966 0.11835724 0.00000000)
		(1.54189944 0.13600538 0.00000000)
		(1.55865922 0.15513931 0.00000000)
		(1.57541899 0.17568094 0.00000000)
		(1.59217877 0.19754640 0.00000000)
		(1.60893855 0.22064646 0.00000000)
		(1.62569832 0.24488681 0.00000000)
		(1.64245810 0.27016851 0.00000000)
		(1.65921788 0.29638836 0.00000000)
		(1.67597765 0.32343934 0.00000000)
		(1.69273743 0.35121102 0.00000000)
		(1.70949721 0.37959005 0.00000000)
		(1.72625698 0.40846058 0.00000000)
		(1.74301676 0.43770477 0.00000000)
		(1.75977654 0.46720323 0.00000000)
		(1.77653631 0.49683558 0.00000000)
		(1.79329609 0.52648084 0.00000000)
		(1.81005587 0.55601800 0.00000000)
		(1.82681564 0.58532651 0.00000000)
		(1.84357542 0.61428672 0.00000000)
		(1.86033520 0.64278042 0.00000000)
		(1.87709497 0.67069131 0.00000000)
		(1.89385475 0.69790544 0.00000000)
		(1.91061453 0.72431175 0.00000000)
		(1.92737430 0.74980244 0.00000000)
		(1.94413408 0.77427345 0.00000000)
		(1.96089385 0.79762490 0.00000000)
		(1.97765363 0.81976148 0.00000000)
		(1.99441341 0.84059281 0.00000000)
		(2.01117318 0.86003388 0.00000000)
		(2.02793296 0.87800532 0.00000000)
		(2.04469274 0.89443378 0.00000000)
		(2.06145251 0.90925219 0.00000000)
		(2.07821229 0.92240007 0.00000000)
		(2.09497207 0.93382375 0.00000000)
		(2.11173184 0.94347660 0.00000000)
		(2.12849162 0.95131922 0.00000000)
		(2.14525140 0.95731959 0.00000000)
		(2.16201117 0.96145322 0.00000000)
		(2.17877095 0.96370325 0.00000000)
		(2.19553073 0.96406047 0.00000000)
		(2.21229050 0.96252345 0.00000000)
		(2.22905028 0.95909844 0.00000000)
		(2.24581006 0.95379943 0.00000000)
		(2.26256983 0.94664806 0.00000000)
		(2.27932961 0.93767350 0.00000000)
		(2.29608939 0.92691240 0.00000000)
		(2.31284916 0.91440869 0.00000000)
		(2.32960894 0.90021339 0.00000000)
		(2.34636872 0.88438446 0.00000000)
		(2.36312849 0.86698650 0.00000000)
		(2.37988827 0.84809054 0.00000000)
		(2.39664804 0.82777370 0.00000000)
		(2.41340782 0.80611892 0.00000000)
		(2.43016760 0.78321459 0.00000000)
		(2.44692737 0.75915420 0.00000000)
		(2.46368715 0.73403596 0.00000000)
		(2.48044693 0.70796242 0.00000000)