/*--------------------------------*- C++ -*----------------------------------*\\
/*--------------------------------*- C++ -*----------------------------------*\\
| =========                 |                                                 |
| \\\\      /  F ield         | OpenFOAM: The Open Source CFD Toolbox           |
|  \\\\    /   O peration     | Version:  v2012                                 |
|   \\\\  /    A nd           | Website:  www.openfoam.com                      |
|    \\\\/     M anipulation  |                                                 |
\\*---------------------------------------------------------------------------*/
FoamFile
{
    version     2.0;
    format      ascii;
    class       dictionary;
    object      blockMeshDict;
}
// * * * * * * * * * * * * * * * * * * * * * * * * * * * * * * * * * * * * * //

scale   0.01;

xmin -1;
xmax 5;
ymin 0;
ymax 0.5;
zmin 0;
zmax 0.1;

vertices
(
    (-1.00000000 0.24245512 0.00000000)
    (4.00000000 -0.22405856 0.00000000)
    (4.00000000 0.27594144 0.00000000)
    (-1.00000000 0.74245512 0.00000000)
    (-1.00000000 0.24245512 0.10000000)
    (4.00000000 -0.22405856 0.10000000)
    (4.00000000 0.27594144 0.10000000)
    (-1.00000000 0.74245512 0.10000000)
);

blocks
(
    hex (0 1 2 3 4 5 6 7) (200 20 1) simpleGrading (1 1 1)
);

edges
(
	polyLine 0 1
	(
		(-1.00000000 0.24245512 0.00000000)
		(-0.98000000 0.24245512 0.00000000)
		(-0.96000000 0.24245512 0.00000000)
		(-0.94000000 0.24245512 0.00000000)
		(-0.92000000 0.24245512 0.00000000)
		(-0.90000000 0.24245512 0.00000000)
		(-0.88000000 0.24245512 0.00000000)
		(-0.86000000 0.24245512 0.00000000)
		(-0.84000000 0.24245512 0.00000000)
		(-0.82000000 0.24245512 0.00000000)
		(-0.80000000 0.24245512 0.00000000)
		(-0.78000000 0.24245512 0.00000000)
		(-0.76000000 0.24245512 0.00000000)
		(-0.74000000 0.24245512 0.00000000)
		(-0.72000000 0.24245512 0.00000000)
		(-0.70000000 0.24245512 0.00000000)
		(-0.68000000 0.24245512 0.00000000)
		(-0.66000000 0.24245512 0.00000000)
		(-0.64000000 0.24245512 0.00000000)
		(-0.62000000 0.24245512 0.00000000)
		(-0.60000000 0.24245512 0.00000000)
		(-0.58000000 0.24245512 0.00000000)
		(-0.56000000 0.24245512 0.00000000)
		(-0.54000000 0.24245512 0.00000000)
		(-0.52000000 0.24245512 0.00000000)
		(-0.50000000 0.24245512 0.00000000)
		(-0.48000000 0.24245512 0.00000000)
		(-0.46000000 0.24245512 0.00000000)
		(-0.44000000 0.24245512 0.00000000)
		(-0.42000000 0.24245512 0.00000000)
		(-0.40000000 0.24245512 0.00000000)
		(-0.38000000 0.24245512 0.00000000)
		(-0.36000000 0.24245512 0.00000000)
		(-0.34000000 0.24245512 0.00000000)
		(-0.32000000 0.24245512 0.00000000)
		(-0.30000000 0.24245512 0.00000000)
		(-0.28000000 0.24245512 0.00000000)
		(-0.26000000 0.24245512 0.00000000)
		(-0.24000000 0.24245512 0.00000000)
		(-0.22000000 0.24245512 0.00000000)
		(-0.20000000 0.24245512 0.00000000)
		(-0.18000000 0.24245512 0.00000000)
		(-0.16000000 0.24245512 0.00000000)
		(-0.14000000 0.24245512 0.00000000)
		(-0.12000000 0.24245512 0.00000000)
		(-0.10000000 0.24245512 0.00000000)
		(-0.08162011 0.24199731 0.00000000)
		(-0.06324022 0.24062389 0.00000000)
		(-0.04486034 0.23833485 0.00000000)
		(-0.02648045 0.23513020 0.00000000)
		(-0.00810056 0.23100994 0.00000000)
		(0.01027933 0.22597406 0.00000000)
		(0.02865922 0.22002256 0.00000000)
		(0.04703911 0.21315546 0.00000000)
		(0.06541899 0.20537273 0.00000000)
		(0.08379888 0.19667440 0.00000000)
		(0.10055866 0.18306434 0.00000000)
		(0.11731844 0.16816916 0.00000000)
		(0.13407821 0.15209342 0.00000000)
		(0.15083799 0.13494998 0.00000000)
		(0.16759777 0.11685917 0.00000000)
		(0.18435754 0.09794800 0.00000000)
		(0.20111732 0.07834923 0.00000000)
		(0.21787709 0.05820044 0.00000000)
		(0.23463687 0.03764308 0.00000000)
		(0.25139665 0.01682146 0.00000000)
		(0.26815642 -0.00411825 0.00000000)
		(0.28491620 -0.02502904 0.00000000)
		(0.30167598 -0.04576413 0.00000000)
		(0.31843575 -0.06617796 0.00000000)
		(0.33519553 -0.08612720 0.00000000)
		(0.35195531 -0.10547183 0.00000000)
		(0.36871508 -0.12407604 0.00000000)
		(0.38547486 -0.14180922 0.00000000)
		(0.40223464 -0.15854689 0.00000000)
		(0.41899441 -0.17417155 0.00000000)
		(0.43575419 -0.18857351 0.00000000)
		(0.45251397 -0.20165167 0.00000000)
		(0.46927374 -0.21331422 0.00000000)
		(0.48603352 -0.22347929 0.00000000)
		(0.50279330 -0.23207551 0.00000000)
		(0.51955307 -0.23904255 0.00000000)
		(0.53631285 -0.24433148 0.00000000)
		(0.55307263 -0.24790519 0.00000000)
		(0.56983240 -0.24973859 0.00000000)
		(0.58659218 -0.24981880 0.00000000)
		(0.60335196 -0.24814526 0.00000000)
		(0.62011173 -0.24472973 0.00000000)
		(0.63687151 -0.23959617 0.00000000)
		(0.65363128 -0.23278062 0.00000000)
		(0.67039106 -0.22433094 0.00000000)
		(0.68715084 -0.21430644 0.00000000)
		(0.70391061 -0.20277749 0.00000000)
		(0.72067039 -0.18982502 0.00000000)
		(0.73743017 -0.17553997 0.00000000)
		(0.75418994 -0.16002261 0.00000000)
		(0.77094972 -0.14338188 0.00000000)
		(0.78770950 -0.12573460 0.00000000)
		(0.80446927 -0.10720465 0.00000000)
		(0.82122905 -0.08792212 0.00000000)
		(0.83798883 -0.06802236 0.00000000)
		(0.85474860 -0.04764509 0.00000000)
		(0.87150838 -0.02693334 0.00000000)
		(0.88826816 -0.00603252 0.00000000)
		(0.90502793 0.01491066 0.00000000)
		(0.92178771 0.03574915 0.00000000)
		(0.93854749 0.05633669 0.00000000)
		(0.95530726 0.07652874 0.00000000)
		(0.97206704 0.09618355 0.00000000)
		(0.98882682 0.11516314 0.00000000)
		(1.00558659 0.13333428 0.00000000)
		(1.02234637 0.15056940 0.00000000)
		(1.03910615 0.16674751 0.00000000)
		(1.05586592 0.18175505 0.00000000)
		(1.07262570 0.19548664 0.00000000)
		(1.08938547 0.20784591 0.00000000)
		(1.10614525 0.21874608 0.00000000)
		(1.12290503 0.22811063 0.00000000)
		(1.13966480 0.23587383 0.00000000)
		(1.15642458 0.24198118 0.00000000)
		(1.17318436 0.24638980 0.00000000)
		(1.18994413 0.24906874 0.00000000)
		(1.20670391 0.24999920 0.00000000)
		(1.22346369 0.24917465 0.00000000)
		(1.24022346 0.24660087 0.00000000)
		(1.25698324 0.24229593 0.00000000)
		(1.27374302 0.23629005 0.00000000)
		(1.29050279 0.22862540 0.00000000)
		(1.30726257 0.21935578 0.00000000)
		(1.32402235 0.20854627 0.00000000)
		(1.34078212 0.19627275 0.00000000)
		(1.35754190 0.18262137 0.00000000)
		(1.37430168 0.16768798 0.00000000)
		(1.39106145 0.15157740 0.00000000)
		(1.40782123 0.13440274 0.00000000)
		(1.42458101 0.11628456 0.00000000)
		(1.44134078 0.09735006 0.00000000)
		(1.45810056 0.07773215 0.00000000)
		(1.47486034 0.05756855 0.00000000)
		(1.49162011 0.03700082 0.00000000)
		(1.50837989 0.01617333 0.00000000)
		(1.52513966 -0.00476769 0.00000000)
		(1.54189944 -0.02567524 0.00000000)
		(1.55865922 -0.04640254 0.00000000)
		(1.57541899 -0.06680410 0.00000000)
		(1.59217877 -0.08673669 0.00000000)
		(1.60893855 -0.10606038 0.00000000)
		(1.62569832 -0.12463952 0.00000000)
		(1.64245810 -0.14234368 0.00000000)
		(1.65921788 -0.15904857 0.00000000)
		(1.67597765 -0.17463693 0.00000000)
		(1.69273743 -0.18899932 0.00000000)
		(1.70949721 -0.20203493 0.00000000)
		(1.72625698 -0.21365223 0.00000000)
		(1.74301676 -0.22376968 0.00000000)
		(1.75977654 -0.23231625 0.00000000)
		(1.77653631 -0.23923193 0.00000000)
		(1.79329609 -0.24446819 0.00000000)
		(1.81005587 -0.24798827 0.00000000)
		(1.82681564 -0.24976744 0.00000000)
		(1.84357542 -0.24979323 0.00000000)
		(1.86033520 -0.24806545 0.00000000)
		(1.87709497 -0.24459623 0.00000000)
		(1.89385475 -0.23940993 0.00000000)
		(1.91061453 -0.23254295 0.00000000)
		(1.92737430 -0.22404349 0.00000000)
		(1.94413408 -0.21397124 0.00000000)
		(1.96089385 -0.20239689 0.00000000)
		(1.97765363 -0.18940170 0.00000000)
		(1.99441341 -0.17507689 0.00000000)
		(2.01117318 -0.15952303 0.00000000)
		(2.02793296 -0.14284930 0.00000000)
		(2.04469274 -0.12517276 0.00000000)
		(2.06145251 -0.10661750 0.00000000)
		(2.07821229 -0.08731378 0.00000000)
		(2.09497207 -0.06739710 0.00000000)
		(2.11173184 -0.04700729 0.00000000)
		(2.12849162 -0.02628749 0.00000000)
		(2.14525140 -0.00538314 0.00000000)
		(2.16201117 0.01555899 0.00000000)
		(2.17877095 0.03639190 0.00000000)
		(2.19553073 0.05696933 0.00000000)
		(2.21229050 0.07714684 0.00000000)
		(2.22905028 0.09678277 0.00000000)
		(2.24581006 0.11573927 0.00000000)
		(2.26256983 0.13388328 0.00000000)
		(2.27932961 0.15108741 0.00000000)
		(2.29608939 0.16723090 0.00000000)
		(2.31284916 0.18220042 0.00000000)
		(2.32960894 0.19589087 0.00000000)
		(2.34636872 0.20820615 0.00000000)
		(2.36312849 0.21905981 0.00000000)
		(2.37988827 0.22837566 0.00000000)
		(2.39664804 0.23608828 0.00000000)
		(2.41340782 0.24214355 0.00000000)
		(2.43016760 0.24649895 0.00000000)
		(2.44692737 0.24912391 0.00000000)
		(2.46368715 0.25000000 0.00000000)
		(2.48044693 0.24912107 0.00000000)
		(2.49720670 0.24649329 0.00000000)
		(2.51396648 0.24213510 0.00000000)
		(2.53072626 0.23607711 0.00000000)
		(2.54748603 0.22836184 0.00000000)
		(2.56424581 0.21904345 0.00000000)
		(2.58100559 0.20818736 0.00000000)
		(2.59776536 0.19586977 0.00000000)
		(2.61452514 0.18217716 0.00000000)
		(2.63128492 0.16720566 0.00000000)
		(2.64804469 0.15106036 0.00000000)
		(2.66480447 0.13385460 0.00000000)
		(2.68156425 0.11570917 0.00000000)
		(2.69832402 0.09675146 0.00000000)
		(2.71508380 0.07711454 0.00000000)
		(2.73184358 0.05693627 0.00000000)
		(2.74860335 0.03635830 0.00000000)
		(2.76536313 0.01552510 0.00000000)
		(2.78212291 -0.00541709 0.00000000)
		(2.79888268 -0.02632125 0.00000000)
		(2.81564246 -0.04704064 0.00000000)
		(2.83240223 -0.06742980 0.00000000)
		(2.84916201 -0.08734559 0.00000000)
		(2.86592179 -0.10664821 0.00000000)
		(2.88268156 -0.12520215 0.00000000)
		(2.89944134 -0.14287717 0.00000000)
		(2.91620112 -0.15954917 0.00000000)
		(2.93296089 -0.17510113 0.00000000)
		(2.95166480 -0.18440304 0.00000000)
		(2.97036872 -0.19272580 0.00000000)
		(2.98907263 -0.20006942 0.00000000)
		(3.00777654 -0.20643388 0.00000000)
		(3.02648045 -0.21181920 0.00000000)
		(3.04518436 -0.21622537 0.00000000)
		(3.06388827 -0.21965239 0.00000000)
		(3.08259218 -0.22210026 0.00000000)
		(3.10129609 -0.22356898 0.00000000)
		(3.12000000 -0.22405856 0.00000000)
		(3.14000000 -0.22405856 0.00000000)
		(3.16000000 -0.22405856 0.00000000)
		(3.18000000 -0.22405856 0.00000000)
		(3.20000000 -0.22405856 0.00000000)
		(3.22000000 -0.22405856 0.00000000)
		(3.24000000 -0.22405856 0.00000000)
		(3.26000000 -0.22405856 0.00000000)
		(3.28000000 -0.22405856 0.00000000)
		(3.30000000 -0.22405856 0.00000000)
		(3.32000000 -0.22405856 0.00000000)
		(3.34000000 -0.22405856 0.00000000)
		(3.36000000 -0.22405856 0.00000000)
		(3.38000000 -0.22405856 0.00000000)
		(3.40000000 -0.22405856 0.00000000)
		(3.42000000 -0.22405856 0.00000000)
		(3.44000000 -0.22405856 0.00000000)
		(3.46000000 -0.22405856 0.00000000)
		(3.48000000 -0.22405856 0.00000000)
		(3.50000000 -0.22405856 0.00000000)
		(3.52000000 -0.22405856 0.00000000)
		(3.54000000 -0.22405856 0.00000000)
		(3.56000000 -0.22405856 0.00000000)
		(3.58000000 -0.22405856 0.00000000)
		(3.60000000 -0.22405856 0.00000000)
		(3.62000000 -0.22405856 0.00000000)
		(3.64000000 -0.22405856 0.00000000)
		(3.66000000 -0.22405856 0.00000000)
		(3.68000000 -0.22405856 0.00000000)
		(3.70000000 -0.22405856 0.00000000)
		(3.72000000 -0.22405856 0.00000000)
		(3.74000000 -0.22405856 0.00000000)
		(3.76000000 -0.22405856 0.00000000)
		(3.78000000 -0.22405856 0.00000000)
		(3.80000000 -0.22405856 0.00000000)
		(3.82000000 -0.22405856 0.00000000)
		(3.84000000 -0.22405856 0.00000000)
		(3.86000000 -0.22405856 0.00000000)
		(3.88000000 -0.22405856 0.00000000)
		(3.90000000 -0.22405856 0.00000000)
		(3.92000000 -0.22405856 0.00000000)
		(3.94000000 -0.22405856 0.00000000)
		(3.96000000 -0.22405856 0.00000000)
		(3.98000000 -0.22405856 0.00000000)
		(4.00000000 -0.22405856 0.00000000)
	)
	polyLine 4 5
	(
		(-1.00000000 0.24245512 0.10000000)
		(-0.98000000 0.24245512 0.10000000)
		(-0.96000000 0.24245512 0.10000000)
		(-0.94000000 0.24245512 0.10000000)
		(-0.92000000 0.24245512 0.10000000)
		(-0.90000000 0.24245512 0.10000000)
		(-0.88000000 0.24245512 0.10000000)
		(-0.86000000 0.24245512 0.10000000)
		(-0.84000000 0.24245512 0.10000000)
		(-0.82000000 0.24245512 0.10000000)
		(-0.80000000 0.24245512 0.10000000)
		(-0.78000000 0.24245512 0.10000000)
		(-0.76000000 0.24245512 0.10000000)
		(-0.74000000 0.24245512 0.10000000)
		(-0.72000000 0.24245512 0.10000000)
		(-0.70000000 0.24245512 0.10000000)
		(-0.68000000 0.24245512 0.10000000)
		(-0.66000000 0.24245512 0.10000000)
		(-0.64000000 0.24245512 0.10000000)
		(-0.62000000 0.24245512 0.10000000)
		(-0.60000000 0.24245512 0.10000000)
		(-0.58000000 0.24245512 0.10000000)
		(-0.56000000 0.24245512 0.10000000)
		(-0.54000000 0.24245512 0.10000000)
		(-0.52000000 0.24245512 0.10000000)
		(-0.50000000 0.24245512 0.10000000)
		(-0.48000000 0.24245512 0.10000000)
		(-0.46000000 0.24245512 0.10000000)
		(-0.44000000 0.24245512 0.10000000)
		(-0.42000000 0.24245512 0.10000000)
		(-0.40000000 0.24245512 0.10000000)
		(-0.38000000 0.24245512 0.10000000)
		(-0.36000000 0.24245512 0.10000000)
		(-0.34000000 0.24245512 0.10000000)
		(-0.32000000 0.24245512 0.10000000)
		(-0.30000000 0.24245512 0.10000000)
		(-0.28000000 0.24245512 0.10000000)
		(-0.26000000 0.24245512 0.10000000)
		(-0.24000000 0.24245512 0.10000000)
		(-0.22000000 0.24245512 0.10000000)
		(-0.20000000 0.24245512 0.10000000)
		(-0.18000000 0.24245512 0.10000000)
		(-0.16000000 0.24245512 0.10000000)
		(-0.14000000 0.24245512 0.10000000)
		(-0.12000000 0.24245512 0.10000000)
		(-0.10000000 0.24245512 0.10000000)
		(-0.08162011 0.24199731 0.10000000)
		(-0.06324022 0.24062389 0.10000000)
		(-0.04486034 0.23833485 0.10000000)
		(-0.02648045 0.23513020 0.10000000)
		(-0.00810056 0.23100994 0.10000000)
		(0.01027933 0.22597406 0.10000000)
		(0.02865922 0.22002256 0.10000000)
		(0.04703911 0.21315546 0.10000000)
		(0.06541899 0.20537273 0.10000000)
		(0.08379888 0.19667440 0.10000000)
		(0.10055866 0.18306434 0.10000000)
		(0.11731844 0.16816916 0.10000000)
		(0.13407821 0.15209342 0.10000000)
		(0.15083799 0.13494998 0.10000000)
		(0.16759777 0.11685917 0.10000000)
		(0.18435754 0.09794800 0.10000000)
		(0.20111732 0.07834923 0.10000000)
		(0.21787709 0.05820044 0.10000000)
		(0.23463687 0.03764308 0.10000000)
		(0.25139665 0.01682146 0.10000000)
		(0.26815642 -0.00411825 0.10000000)
		(0.28491620 -0.02502904 0.10000000)
		(0.30167598 -0.04576413 0.10000000)
		(0.31843575 -0.06617796 0.10000000)
		(0.33519553 -0.08612720 0.10000000)
		(0.35195531 -0.10547183 0.10000000)
		(0.36871508 -0.12407604 0.10000000)
		(0.38547486 -0.14180922 0.10000000)
		(0.40223464 -0.15854689 0.10000000)
		(0.41899441 -0.17417155 0.10000000)
		(0.43575419 -0.18857351 0.10000000)
		(0.45251397 -0.20165167 0.10000000)
		(0.46927374 -0.21331422 0.10000000)
		(0.48603352 -0.22347929 0.10000000)
		(0.50279330 -0.23207551 0.10000000)
		(0.51955307 -0.23904255 0.10000000)
		(0.53631285 -0.24433148 0.10000000)
		(0.55307263 -0.24790519 0.10000000)
		(0.56983240 -0.24973859 0.10000000)
		(0.58659218 -0.24981880 0.10000000)
		(0.60335196 -0.24814526 0.10000000)
		(0.62011173 -0.24472973 0.10000000)
		(0.63687151 -0.23959617 0.10000000)
		(0.65363128 -0.23278062 0.10000000)
		(0.67039106 -0.22433094 0.10000000)
		(0.68715084 -0.21430644 0.10000000)
		(0.70391061 -0.20277749 0.10000000)
		(0.72067039 -0.18982502 0.10000000)
		(0.73743017 -0.17553997 0.10000000)
		(0.75418994 -0.16002261 0.10000000)
		(0.77094972 -0.14338188 0.10000000)
		(0.78770950 -0.12573460 0.10000000)
		(0.80446927 -0.10720465 0.10000000)
		(0.82122905 -0.08792212 0.10000000)
		(0.83798883 -0.06802236 0.10000000)
		(0.85474860 -0.04764509 0.10000000)
		(0.87150838 -0.02693334 0.10000000)
		(0.88826816 -0.00603252 0.10000000)
		(0.90502793 0.01491066 0.10000000)
		(0.92178771 0.03574915 0.10000000)
		(0.93854749 0.05633669 0.10000000)
		(0.95530726 0.07652874 0.10000000)
		(0.97206704 0.09618355 0.10000000)
		(0.98882682 0.11516314 0.10000000)
		(1.00558659 0.13333428 0.10000000)
		(1.02234637 0.15056940 0.10000000)
		(1.03910615 0.16674751 0.10000000)
		(1.05586592 0.18175505 0.10000000)
		(1.07262570 0.19548664 0.10000000)
		(1.08938547 0.20784591 0.10000000)
		(1.10614525 0.21874608 0.10000000)
		(1.12290503 0.22811063 0.10000000)
		(1.13966480 0.23587383 0.10000000)
		(1.15642458 0.24198118 0.10000000)
		(1.17318436 0.24638980 0.10000000)
		(1.18994413 0.24906874 0.10000000)
		(1.20670391 0.24999920 0.10000000)
		(1.22346369 0.24917465 0.10000000)
		(1.24022346 0.24660087 0.10000000)
		(1.25698324 0.24229593 0.10000000)
		(1.27374302 0.23629005 0.10000000)
		(1.29050279 0.22862540 0.10000000)
		(1.30726257 0.21935578 0.10000000)
		(1.32402235 0.20854627 0.10000000)
		(1.34078212 0.19627275 0.10000000)
		(1.35754190 0.18262137 0.10000000)
		(1.37430168 0.16768798 0.10000000)
		(1.39106145 0.15157740 0.10000000)
		(1.40782123 0.13440274 0.10000000)
		(1.42458101 0.11628456 0.10000000)
		(1.44134078 0.09735006 0.10000000)
		(1.45810056 0.07773215 0.10000000)
		(1.47486034 0.05756855 0.10000000)
		(1.49162011 0.03700082 0.10000000)
		(1.50837989 0.01617333 0.10000000)
		(1.52513966 -0.00476769 0.10000000)
		(1.54189944 -0.02567524 0.10000000)
		(1.55865922 -0.04640254 0.10000000)
		(1.57541899 -0.06680410 0.10000000)
		(1.59217877 -0.08673669 0.10000000)
		(1.60893855 -0.10606038 0.10000000)
		(1.62569832 -0.12463952 0.10000000)
		(1.64245810 -0.14234368 0.10000000)
		(1.65921788 -0.15904857 0.10000000)
		(1.67597765 -0.17463693 0.10000000)
		(1.69273743 -0.18899932 0.10000000)
		(1.70949721 -0.20203493 0.10000000)
		(1.72625698 -0.21365223 0.10000000)
		(1.74301676 -0.22376968 0.10000000)
		(1.75977654 -0.23231625 0.10000000)
		(1.77653631 -0.23923193 0.10000000)
		(1.79329609 -0.24446819 0.10000000)
		(1.81005587 -0.24798827 0.10000000)
		(1.82681564 -0.24976744 0.10000000)
		(1.84357542 -0.24979323 0.10000000)
		(1.86033520 -0.24806545 0.10000000)
		(1.87709497 -0.24459623 0.10000000)
		(1.89385475 -0.23940993 0.10000000)
		(1.91061453 -0.23254295 0.10000000)
		(1.92737430 -0.22404349 0.10000000)
		(1.94413408 -0.21397124 0.10000000)
		(1.96089385 -0.20239689 0.10000000)
		(1.97765363 -0.18940170 0.10000000)
		(1.99441341 -0.17507689 0.10000000)
		(2.01117318 -0.15952303 0.10000000)
		(2.02793296 -0.14284930 0.10000000)
		(2.04469274 -0.12517276 0.10000000)
		(2.06145251 -0.10661750 0.10000000)
		(2.07821229 -0.08731378 0.10000000)
		(2.09497207 -0.06739710 0.10000000)
		(2.11173184 -0.04700729 0.10000000)
		(2.12849162 -0.02628749 0.10000000)
		(2.14525140 -0.00538314 0.10000000)
		(2.16201117 0.01555899 0.10000000)
		(2.17877095 0.03639190 0.10000000)
		(2.19553073 0.05696933 0.10000000)
		(2.21229050 0.07714684 0.10000000)
		(2.22905028 0.09678277 0.10000000)
		(2.24581006 0.11573927 0.10000000)
		(2.26256983 0.13388328 0.10000000)
		(2.27932961 0.15108741 0.10000000)
		(2.29608939 0.16723090 0.10000000)
		(2.31284916 0.18220042 0.10000000)
		(2.32960894 0.19589087 0.10000000)
		(2.34636872 0.20820615 0.10000000)
		(2.36312849 0.21905981 0.10000000)
		(2.37988827 0.22837566 0.10000000)
		(2.39664804 0.23608828 0.10000000)
		(2.41340782 0.24214355 0.10000000)
		(2.43016760 0.24649895 0.10000000)
		(2.44692737 0.24912391 0.10000000)
		(2.46368715 0.25000000 0.10000000)
		(2.48044693 0.24912107 0.10000000)
		(2.49720670 0.24649329 0.10000000)
		(2.51396648 0.24213510 0.10000000)
		(2.53072626 0.23607711 0.10000000)
		(2.54748603 0.22836184 0.10000000)
		(2.56424581 0.21904345 0.10000000)
		(2.58100559 0.20818736 0.10000000)
		(2.59776536 0.19586977 0.10000000)
		(2.61452514 0.18217716 0.10000000)
		(2.63128492 0.16720566 0.10000000)
		(2.64804469 0.15106036 0.10000000)
		(2.66480447 0.13385460 0.10000000)
		(2.68156425 0.11570917 0.10000000)
		(2.69832402 0.09675146 0.10000000)
		(2.71508380 0.07711454 0.10000000)
		(2.73184358 0.05693627 0.10000000)
		(2.74860335 0.03635830 0.10000000)
		(2.76536313 0.01552510 0.10000000)
		(2.78212291 -0.00541709 0.10000000)
		(2.79888268 -0.02632125 0.10000000)
		(2.81564246 -0.04704064 0.10000000)
		(2.83240223 -0.06742980 0.10000000)
		(2.84916201 -0.08734559 0.10000000)
		(2.86592179 -0.10664821 0.10000000)
		(2.88268156 -0.12520215 0.10000000)
		(2.89944134 -0.14287717 0.10000000)
		(2.91620112 -0.15954917 0.10000000)
		(2.93296089 -0.17510113 0.10000000)
		(2.95166480 -0.18440304 0.10000000)
		(2.97036872 -0.19272580 0.10000000)
		(2.98907263 -0.20006942 0.10000000)
		(3.00777654 -0.20643388 0.10000000)
		(3.02648045 -0.21181920 0.10000000)
		(3.04518436 -0.21622537 0.10000000)
		(3.06388827 -0.21965239 0.10000000)
		(3.08259218 -0.22210026 0.10000000)
		(3.10129609 -0.22356898 0.10000000)
		(3.12000000 -0.22405856 0.10000000)
		(3.14000000 -0.22405856 0.10000000)
		(3.16000000 -0.22405856 0.10000000)
		(3.18000000 -0.22405856 0.10000000)
		(3.20000000 -0.22405856 0.10000000)
		(3.22000000 -0.22405856 0.10000000)
		(3.24000000 -0.22405856 0.10000000)
		(3.26000000 -0.22405856 0.10000000)
		(3.28000000 -0.22405856 0.10000000)
		(3.30000000 -0.22405856 0.10000000)
		(3.32000000 -0.22405856 0.10000000)
		(3.34000000 -0.22405856 0.10000000)
		(3.36000000 -0.22405856 0.10000000)
		(3.38000000 -0.22405856 0.10000000)
		(3.40000000 -0.22405856 0.10000000)
		(3.42000000 -0.22405856 0.10000000)
		(3.44000000 -0.22405856 0.10000000)
		(3.46000000 -0.22405856 0.10000000)
		(3.48000000 -0.22405856 0.10000000)
		(3.50000000 -0.22405856 0.10000000)
		(3.52000000 -0.22405856 0.10000000)
		(3.54000000 -0.22405856 0.10000000)
		(3.56000000 -0.22405856 0.10000000)
		(3.58000000 -0.22405856 0.10000000)
		(3.60000000 -0.22405856 0.10000000)
		(3.62000000 -0.22405856 0.10000000)
		(3.64000000 -0.22405856 0.10000000)
		(3.66000000 -0.22405856 0.10000000)
		(3.68000000 -0.22405856 0.10000000)
		(3.70000000 -0.22405856 0.10000000)
		(3.72000000 -0.22405856 0.10000000)
		(3.74000000 -0.22405856 0.10000000)
		(3.76000000 -0.22405856 0.10000000)
		(3.78000000 -0.22405856 0.10000000)
		(3.80000000 -0.22405856 0.10000000)
		(3.82000000 -0.22405856 0.10000000)
		(3.84000000 -0.22405856 0.10000000)
		(3.86000000 -0.22405856 0.10000000)
		(3.88000000 -0.22405856 0.10000000)
		(3.90000000 -0.22405856 0.10000000)
		(3.92000000 -0.22405856 0.10000000)
		(3.94000000 -0.22405856 0.10000000)
		(3.96000000 -0.22405856 0.10000000)
		(3.98000000 -0.22405856 0.10000000)
		(4.00000000 -0.22405856 0.10000000)
	)
	polyLine 3 2
	(
		(-1.00000000 0.74245512 0.00000000)
		(-0.98000000 0.74543784 0.00000000)
		(-0.96000000 0.74842056 0.00000000)
		(-0.94000000 0.75140328 0.00000000)
		(-0.92000000 0.75438599 0.00000000)
		(-0.90000000 0.75736871 0.00000000)
		(-0.88000000 0.76035143 0.00000000)
		(-0.86000000 0.76333415 0.00000000)
		(-0.84000000 0.76631687 0.00000000)
		(-0.82000000 0.76929959 0.00000000)
		(-0.80000000 0.77228231 0.00000000)
		(-0.78000000 0.77526503 0.00000000)
		(-0.76000000 0.77824775 0.00000000)
		(-0.74000000 0.78123047 0.00000000)
		(-0.72000000 0.78421319 0.00000000)
		(-0.70000000 0.78719591 0.00000000)
		(-0.68000000 0.79017863 0.00000000)
		(-0.66000000 0.79316135 0.00000000)
		(-0.64000000 0.79614407 0.00000000)
		(-0.62000000 0.79912678 0.00000000)
		(-0.60000000 0.80210950 0.00000000)
		(-0.58000000 0.80509222 0.00000000)
		(-0.56000000 0.80807494 0.00000000)
		(-0.54000000 0.81105766 0.00000000)
		(-0.52000000 0.81404038 0.00000000)
		(-0.50000000 0.81702310 0.00000000)
		(-0.48000000 0.82000582 0.00000000)
		(-0.46000000 0.82298854 0.00000000)
		(-0.44000000 0.82597126 0.00000000)
		(-0.42000000 0.82895398 0.00000000)
		(-0.40000000 0.83193670 0.00000000)
		(-0.38000000 0.83491942 0.00000000)
		(-0.36000000 0.83790214 0.00000000)
		(-0.34000000 0.84088486 0.00000000)
		(-0.32000000 0.84386757 0.00000000)
		(-0.30000000 0.84685029 0.00000000)
		(-0.28000000 0.84983301 0.00000000)
		(-0.26000000 0.85281573 0.00000000)
		(-0.24000000 0.85579845 0.00000000)
		(-0.22000000 0.85878117 0.00000000)
		(-0.20000000 0.86176389 0.00000000)
		(-0.18000000 0.86474661 0.00000000)
		(-0.16000000 0.86772933 0.00000000)
		(-0.14000000 0.87071205 0.00000000)
		(-0.12000000 0.87369477 0.00000000)
		(-0.10000000 0.87667749 0.00000000)
		(-0.08162011 0.87925326 0.00000000)
		(-0.06324022 0.87989116 0.00000000)
		(-0.04486034 0.87859118 0.00000000)
		(-0.02648045 0.87535333 0.00000000)
		(-0.00810056 0.87017760 0.00000000)
		(0.01027933 0.86306399 0.00000000)
		(0.02865922 0.85401250 0.00000000)
		(0.04703911 0.84302314 0.00000000)
		(0.06541899 0.83009590 0.00000000)
		(0.08379888 0.81523078 0.00000000)
		(0.10055866 0.79341651 0.00000000)
		(0.11731844 0.76954244 0.00000000)
		(0.13407821 0.74377616 0.00000000)
		(0.15083799 0.71629855 0.00000000)
		(0.16759777 0.68730250 0.00000000)
		(0.18435754 0.65699158 0.00000000)
		(0.20111732 0.62557856 0.00000000)
		(0.21787709 0.59328397 0.00000000)
		(0.23463687 0.56033453 0.00000000)
		(0.25139665 0.52696152 0.00000000)
		(0.26815642 0.49339925 0.00000000)
		(0.28491620 0.45988331 0.00000000)
		(0.30167598 0.42664900 0.00000000)
		(0.31843575 0.39392962 0.00000000)
		(0.33519553 0.36195485 0.00000000)
		(0.35195531 0.33094918 0.00000000)
		(0.36871508 0.30113026 0.00000000)
		(0.38547486 0.27270742 0.00000000)
		(0.40223464 0.24588019 0.00000000)
		(0.41899441 0.22083690 0.00000000)
		(0.43575419 0.19775336 0.00000000)
		(0.45251397 0.17679161 0.00000000)
		(0.46927374 0.15809882 0.00000000)
		(0.48603352 0.14180620 0.00000000)
		(0.50279330 0.12802812 0.00000000)
		(0.51955307 0.11686132 0.00000000)
		(0.53631285 0.10838419 0.00000000)
		(0.55307263 0.10265622 0.00000000)
		(0.56983240 0.09971765 0.00000000)
		(0.58659218 0.09958908 0.00000000)
		(0.60335196 0.10227144 0.00000000)
		(0.62011173 0.10774588 0.00000000)
		(0.63687151 0.11597398 0.00000000)
		(0.65363128 0.12689797 0.00000000)
		(0.67039106 0.14044116 0.00000000)
		(0.68715084 0.15650849 0.00000000)
		(0.70391061 0.17498716 0.00000000)
		(0.72067039 0.19574744 0.00000000)
		(0.73743017 0.21864360 0.00000000)
		(0.75418994 0.24351490 0.00000000)
		(0.77094972 0.27018675 0.00000000)
		(0.78770950 0.29847191 0.00000000)
		(0.80446927 0.32817181 0.00000000)
		(0.82122905 0.35907796 0.00000000)
		(0.83798883 0.39097339 0.00000000)
		(0.85474860 0.42363420 0.00000000)
		(0.87150838 0.45683110 0.00000000)
		(0.88826816 0.49033105 0.00000000)
		(0.90502793 0.52389888 0.00000000)
		(0.92178771 0.55729894 0.00000000)
		(0.93854749 0.59029675 0.00000000)
		(0.95530726 0.62266067 0.00000000)
		(0.97206704 0.65416351 0.00000000)
		(0.98882682 0.68458410 0.00000000)
		(1.00558659 0.71370890 0.00000000)
		(1.02234637 0.74133345 0.00000000)
		(1.03910615 0.76726381 0.00000000)
		(1.05586592 0.79131796 0.00000000)
		(1.07262570 0.81332704 0.00000000)
		(1.08938547 0.83313654 0.00000000)
		(1.10614525 0.85060739 0.00000000)
		(1.12290503 0.86561694 0.00000000)
		(1.13966480 0.87805984 0.00000000)
		(1.15642458 0.88784873 0.00000000)
		(1.17318436 0.89491489 0.00000000)
		(1.18994413 0.89920871 0.00000000)
		(1.20670391 0.90070006 0.00000000)
		(1.22346369 0.89937846 0.00000000)
		(1.24022346 0.89525319 0.00000000)
		(1.25698324 0.88835322 0.00000000)
		(1.27374302 0.87872697 0.00000000)
		(1.29050279 0.86644203 0.00000000)
		(1.30726257 0.85158463 0.00000000)
		(1.32402235 0.83425908 0.00000000)
		(1.34078212 0.81458701 0.00000000)
		(1.35754190 0.79270651 0.00000000)
		(1.37430168 0.76877119 0.00000000)
		(1.39106145 0.74294908 0.00000000)
		(1.40782123 0.71542144 0.00000000)
		(1.42458101 0.68638152 0.00000000)
		(1.44134078 0.65603319 0.00000000)
		(1.45810056 0.62458950 0.00000000)
		(1.47486034 0.59227118 0.00000000)
		(1.49162011 0.55930511 0.00000000)
		(1.50837989 0.52592271 0.00000000)
		(1.52513966 0.49235833 0.00000000)
		(1.54189944 0.45884759 0.00000000)
		(1.55865922 0.42562575 0.00000000)
		(1.57541899 0.39292603 0.00000000)
		(1.59217877 0.36097797 0.00000000)
		(1.60893855 0.33000585 0.00000000)
		(1.62569832 0.30022711 0.00000000)
		(1.64245810 0.27185079 0.00000000)
		(1.65921788 0.24507610 0.00000000)
		(1.67597765 0.22009099 0.00000000)
		(1.69273743 0.19707087 0.00000000)
		(1.70949721 0.17617733 0.00000000)
		(1.72625698 0.15755705 0.00000000)
		(1.74301676 0.14134076 0.00000000)
		(1.75977654 0.12764227 0.00000000)
		(1.77653631 0.11655777 0.00000000)
		(1.79329609 0.10816507 0.00000000)
		(1.81005587 0.10252307 0.00000000)
		(1.82681564 0.09967140 0.00000000)
		(1.84357542 0.09963007 0.00000000)
		(1.86033520 0.10239936 0.00000000)
		(1.87709497 0.10795984 0.00000000)
		(1.89385475 0.11627248 0.00000000)
		(1.91061453 0.12727892 0.00000000)
		(1.92737430 0.14090188 0.00000000)
		(1.94413408 0.15704575 0.00000000)
		(1.96089385 0.17559718 0.00000000)
		(1.97765363 0.19642594 0.00000000)
		(1.99441341 0.21938582 0.00000000)
		(2.01117318 0.24431563 0.00000000)
		(2.02793296 0.27104037 0.00000000)
		(2.04469274 0.29937242 0.00000000)
		(2.06145251 0.32911290 0.00000000)
		(2.07821229 0.36005301 0.00000000)
		(2.09497207 0.39197557 0.00000000)
		(2.11173184 0.42465646 0.00000000)
		(2.12849162 0.45786627 0.00000000)
		(2.14525140 0.49137187 0.00000000)
		(2.16201117 0.52493803 0.00000000)
		(2.17877095 0.55832913 0.00000000)
		(2.19553073 0.59131075 0.00000000)
		(2.21229050 0.62365137 0.00000000)
		(2.22905028 0.65512394 0.00000000)
		(2.24581006 0.68550753 0.00000000)
		(2.26256983 0.71458884 0.00000000)
		(2.27932961 0.74216372 0.00000000)
		(2.29608939 0.76803859 0.00000000)
		(2.31284916 0.79203181 0.00000000)
		(2.32960894 0.81397494 0.00000000)
		(2.34636872 0.83371394 0.00000000)
		(2.36312849 0.85111025 0.00000000)
		(2.37988827 0.86604173 0.00000000)
		(2.39664804 0.87840357 0.00000000)
		(2.41340782 0.88810898 0.00000000)
		(2.43016760 0.89508984 0.00000000)
		(2.44692737 0.89929714 0.00000000)
		(2.46368715 0.90070134 0.00000000)
		(2.48044693 0.89929259 0.00000000)
		(2.49720670 0.89508076 0.00000000)
		(2.51396648 0.88809544 0.00000000)