/*--------------------------------*- C++ -*----------------------------------*\\
/*--------------------------------*- C++ -*----------------------------------*\\
| =========                 |                                                 |
| \\\\      /  F ield         | OpenFOAM: The Open Source CFD Toolbox           |
|  \\\\    /   O peration     | Version:  v2012                                 |
|   \\\\  /    A nd           | Website:  www.openfoam.com                      |
|    \\\\/     M anipulation  |                                                 |
\\*---------------------------------------------------------------------------*/
FoamFile
{
    version     2.0;
    format      ascii;
    class       dictionary;
    object      blockMeshDict;
}
// * * * * * * * * * * * * * * * * * * * * * * * * * * * * * * * * * * * * * //

scale   0.01;

xmin -1;
xmax 5;
ymin 0;
ymax 0.5;
zmin 0;
zmax 0.1;

vertices
(
    (-1.00000000 -0.24982480 0.00000000)
    (4.00000000 0.03279773 0.00000000)
    (4.00000000 0.53279773 0.00000000)
    (-1.00000000 0.25017520 0.00000000)
    (-1.00000000 -0.24982480 0.10000000)
    (4.00000000 0.03279773 0.10000000)
    (4.00000000 0.53279773 0.10000000)
    (-1.00000000 0.25017520 0.10000000)
);

blocks
(
    hex (0 1 2 3 4 5 6 7) (200 20 1) simpleGrading (1 1 1)
);

edges
(
	polyLine 0 1
	(
		(-1.00000000 -0.24982480 0.00000000)
		(-0.98000000 -0.24982480 0.00000000)
		(-0.96000000 -0.24982480 0.00000000)
		(-0.94000000 -0.24982480 0.00000000)
		(-0.92000000 -0.24982480 0.00000000)
		(-0.90000000 -0.24982480 0.00000000)
		(-0.88000000 -0.24982480 0.00000000)
		(-0.86000000 -0.24982480 0.00000000)
		(-0.84000000 -0.24982480 0.00000000)
		(-0.82000000 -0.24982480 0.00000000)
		(-0.80000000 -0.24982480 0.00000000)
		(-0.78000000 -0.24982480 0.00000000)
		(-0.76000000 -0.24982480 0.00000000)
		(-0.74000000 -0.24982480 0.00000000)
		(-0.72000000 -0.24982480 0.00000000)
		(-0.70000000 -0.24982480 0.00000000)
		(-0.68000000 -0.24982480 0.00000000)
		(-0.66000000 -0.24982480 0.00000000)
		(-0.64000000 -0.24982480 0.00000000)
		(-0.62000000 -0.24982480 0.00000000)
		(-0.60000000 -0.24982480 0.00000000)
		(-0.58000000 -0.24982480 0.00000000)
		(-0.56000000 -0.24982480 0.00000000)
		(-0.54000000 -0.24982480 0.00000000)
		(-0.52000000 -0.24982480 0.00000000)
		(-0.50000000 -0.24982480 0.00000000)
		(-0.48000000 -0.24982480 0.00000000)
		(-0.46000000 -0.24982480 0.00000000)
		(-0.44000000 -0.24982480 0.00000000)
		(-0.42000000 -0.24982480 0.00000000)
		(-0.40000000 -0.24982480 0.00000000)
		(-0.38000000 -0.24982480 0.00000000)
		(-0.36000000 -0.24982480 0.00000000)
		(-0.34000000 -0.24982480 0.00000000)
		(-0.32000000 -0.24982480 0.00000000)
		(-0.30000000 -0.24982480 0.00000000)
		(-0.28000000 -0.24982480 0.00000000)
		(-0.26000000 -0.24982480 0.00000000)
		(-0.24000000 -0.24982480 0.00000000)
		(-0.22000000 -0.24982480 0.00000000)
		(-0.20000000 -0.24982480 0.00000000)
		(-0.18000000 -0.24982480 0.00000000)
		(-0.16000000 -0.24982480 0.00000000)
		(-0.14000000 -0.24982480 0.00000000)
		(-0.12000000 -0.24982480 0.00000000)
		(-0.10000000 -0.24982480 0.00000000)
		(-0.08162011 -0.24950183 0.00000000)
		(-0.06324022 -0.24853293 0.00000000)
		(-0.04486034 -0.24691809 0.00000000)
		(-0.02648045 -0.24465732 0.00000000)
		(-0.00810056 -0.24175061 0.00000000)
		(0.01027933 -0.23819797 0.00000000)
		(0.02865922 -0.23399940 0.00000000)
		(0.04703911 -0.22915489 0.00000000)
		(0.06541899 -0.22366444 0.00000000)
		(0.08379888 -0.21752806 0.00000000)
		(0.10055866 -0.20477564 0.00000000)
		(0.11731844 -0.19015371 0.00000000)
		(0.13407821 -0.17379575 0.00000000)
		(0.15083799 -0.15585111 0.00000000)
		(0.16759777 -0.13648362 0.00000000)
		(0.18435754 -0.11587009 0.00000000)
		(0.20111732 -0.09419872 0.00000000)
		(0.21787709 -0.07166735 0.00000000)
		(0.23463687 -0.04848169 0.00000000)
		(0.25139665 -0.02485341 0.00000000)
		(0.26815642 -0.00099823 0.00000000)
		(0.28491620 0.02286606 0.00000000)
		(0.30167598 0.04652160 0.00000000)
		(0.31843575 0.06975241 0.00000000)
		(0.33519553 0.09234641 0.00000000)
		(0.35195531 0.11409733 0.00000000)
		(0.36871508 0.13480659 0.00000000)
		(0.38547486 0.15428512 0.00000000)
		(0.40223464 0.17235510 0.00000000)
		(0.41899441 0.18885154 0.00000000)
		(0.43575419 0.20362386 0.00000000)
		(0.45251397 0.21653717 0.00000000)
		(0.46927374 0.22747359 0.00000000)
		(0.48603352 0.23633327 0.00000000)
		(0.50279330 0.24303534 0.00000000)
		(0.51955307 0.24751859 0.00000000)
		(0.53631285 0.24974210 0.00000000)
		(0.55307263 0.24968558 0.00000000)
		(0.56983240 0.24734953 0.00000000)
		(0.58659218 0.24275528 0.00000000)
		(0.60335196 0.23594478 0.00000000)
		(0.62011173 0.22698021 0.00000000)
		(0.63687151 0.21594341 0.00000000)
		(0.65363128 0.20293513 0.00000000)
		(0.67039106 0.18807414 0.00000000)
		(0.68715084 0.17149612 0.00000000)
		(0.70391061 0.15335240 0.00000000)
		(0.72067039 0.13380865 0.00000000)
		(0.73743017 0.11304328 0.00000000)
		(0.75418994 0.09124587 0.00000000)
		(0.77094972 0.06861543 0.00000000)
		(0.78770950 0.04535856 0.00000000)
		(0.80446927 0.02168758 0.00000000)
		(0.82122905 -0.00218139 0.00000000)
		(0.83798883 -0.02603045 0.00000000)
		(0.85474860 -0.04964187 0.00000000)
		(0.87150838 -0.07280007 0.00000000)
		(0.88826816 -0.09529364 0.00000000)
		(0.90502793 -0.11691722 0.00000000)
		(0.92178771 -0.13747340 0.00000000)
		(0.93854749 -0.15677450 0.00000000)
		(0.95530726 -0.17464432 0.00000000)
		(0.97206704 -0.19091970 0.00000000)
		(0.98882682 -0.20545208 0.00000000)
		(1.00558659 -0.21810876 0.00000000)
		(1.02234637 -0.22877421 0.00000000)
		(1.03910615 -0.23735104 0.00000000)
		(1.05586592 -0.24376096 0.00000000)
		(1.07262570 -0.24794544 0.00000000)
		(1.08938547 -0.24986629 0.00000000)
		(1.10614525 -0.24950596 0.00000000)
		(1.12290503 -0.24686776 0.00000000)
		(1.13966480 -0.24197575 0.00000000)
		(1.15642458 -0.23487461 0.00000000)
		(1.17318436 -0.22562916 0.00000000)
		(1.18994413 -0.21432382 0.00000000)
		(1.20670391 -0.20106179 0.00000000)
		(1.22346369 -0.18596415 0.00000000)
		(1.24022346 -0.16916874 0.00000000)
		(1.25698324 -0.15082889 0.00000000)
		(1.27374302 -0.13111203 0.00000000)
		(1.29050279 -0.11019818 0.00000000)
		(1.30726257 -0.08827827 0.00000000)
		(1.32402235 -0.06555241 0.00000000)
		(1.34078212 -0.04222809 0.00000000)
		(1.35754190 -0.01851824 0.00000000)
		(1.37430168 0.00536067 0.00000000)
		(1.39106145 0.02919064 0.00000000)
		(1.40782123 0.05275411 0.00000000)
		(1.42458101 0.07583596 0.00000000)
		(1.44134078 0.09822546 0.00000000)
		(1.45810056 0.11971820 0.00000000)
		(1.47486034 0.14011796 0.00000000)
		(1.49162011 0.15923851 0.00000000)
		(1.50837989 0.17690528 0.00000000)
		(1.52513966 0.19295698 0.00000000)
		(1.54189944 0.20724707 0.00000000)
		(1.55865922 0.21964507 0.00000000)
		(1.57541899 0.23003781 0.00000000)
		(1.59217877 0.23833041 0.00000000)
		(1.60893855 0.24444714 0.00000000)
		(1.62569832 0.24833218 0.00000000)
		(1.64245810 0.24995006 0.00000000)
		(1.65921788 0.24928599 0.00000000)
		(1.67597765 0.24634605 0.00000000)
		(1.69273743 0.24115708 0.00000000)
		(1.70949721 0.23376644 0.00000000)
		(1.72625698 0.22424162 0.00000000)
		(1.74301676 0.21266956 0.00000000)
		(1.75977654 0.19915592 0.00000000)
		(1.77653631 0.18382408 0.00000000)
		(1.79329609 0.16681400 0.00000000)
		(1.81005587 0.14828097 0.00000000)
		(1.82681564 0.12839421 0.00000000)
		(1.84357542 0.10733526 0.00000000)
		(1.86033520 0.08529639 0.00000000)
		(1.87709497 0.06247879 0.00000000)
		(1.89385475 0.03909079 0.00000000)
		(1.91061453 0.01534591 0.00000000)
		(1.92737430 -0.00853907 0.00000000)
		(1.94413408 -0.03234610 0.00000000)
		(1.96089385 -0.05585781 0.00000000)
		(1.97765363 -0.07885958 0.00000000)
		(1.99441341 -0.10114138 0.00000000)
		(2.01117318 -0.12249981 0.00000000)
		(2.02793296 -0.14273987 0.00000000)
		(2.04469274 -0.16167677 0.00000000)
		(2.06145251 -0.17913763 0.00000000)
		(2.07821229 -0.19496305 0.00000000)
		(2.09497207 -0.20900853 0.00000000)
		(2.11173184 -0.22114585 0.00000000)
		(2.12849162 -0.23126421 0.00000000)
		(2.14525140 -0.23927122 0.00000000)
		(2.16201117 -0.24509379 0.00000000)
		(2.17877095 -0.24867876 0.00000000)
		(2.19553073 -0.24999339 0.00000000)
		(2.21229050 -0.24902569 0.00000000)
		(2.22905028 -0.24578450 0.00000000)
		(2.24581006 -0.24029939 0.00000000)
		(2.26256983 -0.23262046 0.00000000)
		(2.27932961 -0.22281780 0.00000000)
		(2.29608939 -0.21098090 0.00000000)
		(2.31284916 -0.19721784 0.00000000)
		(2.32960894 -0.18165427 0.00000000)
		(2.34636872 -0.16443227 0.00000000)
		(2.36312849 -0.14570907 0.00000000)
		(2.37988827 -0.12565561 0.00000000)
		(2.39664804 -0.10445497 0.00000000)
		(2.41340782 -0.08230070 0.00000000)
		(2.43016760 -0.05939506 0.00000000)
		(2.44692737 -0.03594717 0.00000000)
		(2.46368715 -0.01217110 0.00000000)
		(2.48044693 0.01171610 0.00000000)
		(2.49720670 0.03549632 0.00000000)
		(2.51396648 0.05895249 0.00000000)
		(2.53072626 0.08187044 0.00000000)
		(2.54748603 0.10404095 0.00000000)
		(2.56424581 0.12526161 0.00000000)
		(2.58100559 0.14533868 0.00000000)
		(2.59776536 0.16408887 0.00000000)
		(2.61452514 0.18134101 0.00000000)
		(2.63128492 0.19693757 0.00000000)
		(2.64804469 0.21073618 0.00000000)
		(2.66480447 0.22261086 0.00000000)
		(2.68156425 0.23245320 0.00000000)
		(2.69832402 0.24017333 0.00000000)
		(2.71508380 0.24570079 0.00000000)
		(2.73184358 0.24898510 0.00000000)
		(2.74860335 0.24999629 0.00000000)
		(2.76536313 0.24872512 0.00000000)
		(2.78212291 0.24518319 0.00000000)
		(2.79888268 0.23940284 0.00000000)
		(2.81564246 0.23143685 0.00000000)
		(2.83240223 0.22135793 0.00000000)
		(2.84916201 0.20925812 0.00000000)
		(2.86592179 0.19524786 0.00000000)
		(2.88268156 0.17945508 0.00000000)
		(2.89944134 0.16202395 0.00000000)
		(2.91620112 0.14311360 0.00000000)
		(2.93296089 0.12289669 0.00000000)
		(2.95166480 0.10577789 0.00000000)
		(2.97036872 0.09046107 0.00000000)
		(2.98907263 0.07694622 0.00000000)
		(3.00777654 0.06523336 0.00000000)
		(3.02648045 0.05532247 0.00000000)
		(3.04518436 0.04721357 0.00000000)
		(3.06388827 0.04090664 0.00000000)
		(3.08259218 0.03640169 0.00000000)
		(3.10129609 0.03369872 0.00000000)
		(3.12000000 0.03279773 0.00000000)
		(3.14000000 0.03279773 0.00000000)
		(3.16000000 0.03279773 0.00000000)
		(3.18000000 0.03279773 0.00000000)
		(3.20000000 0.03279773 0.00000000)
		(3.22000000 0.03279773 0.00000000)
		(3.24000000 0.03279773 0.00000000)
		(3.26000000 0.03279773 0.00000000)
		(3.28000000 0.03279773 0.00000000)
		(3.30000000 0.03279773 0.00000000)
		(3.32000000 0.03279773 0.00000000)
		(3.34000000 0.03279773 0.00000000)
		(3.36000000 0.03279773 0.00000000)
		(3.38000000 0.03279773 0.00000000)
		(3.40000000 0.03279773 0.00000000)
		(3.42000000 0.03279773 0.00000000)
		(3.44000000 0.03279773 0.00000000)
		(3.46000000 0.03279773 0.00000000)
		(3.48000000 0.03279773 0.00000000)
		(3.50000000 0.03279773 0.00000000)
		(3.52000000 0.03279773 0.00000000)
		(3.54000000 0.03279773 0.00000000)
		(3.56000000 0.03279773 0.00000000)
		(3.58000000 0.03279773 0.00000000)
		(3.60000000 0.03279773 0.00000000)
		(3.62000000 0.03279773 0.00000000)
		(3.64000000 0.03279773 0.00000000)
		(3.66000000 0.03279773 0.00000000)
		(3.68000000 0.03279773 0.00000000)
		(3.70000000 0.03279773 0.00000000)
		(3.72000000 0.03279773 0.00000000)
		(3.74000000 0.03279773 0.00000000)
		(3.76000000 0.03279773 0.00000000)
		(3.78000000 0.03279773 0.00000000)
		(3.80000000 0.03279773 0.00000000)
		(3.82000000 0.03279773 0.00000000)
		(3.84000000 0.03279773 0.00000000)
		(3.86000000 0.03279773 0.00000000)
		(3.88000000 0.03279773 0.00000000)
		(3.90000000 0.03279773 0.00000000)
		(3.92000000 0.03279773 0.00000000)
		(3.94000000 0.03279773 0.00000000)
		(3.96000000 0.03279773 0.00000000)
		(3.98000000 0.03279773 0.00000000)
		(4.00000000 0.03279773 0.00000000)
	)
	polyLine 4 5
	(
		(-1.00000000 -0.24982480 0.10000000)
		(-0.98000000 -0.24982480 0.10000000)
		(-0.96000000 -0.24982480 0.10000000)
		(-0.94000000 -0.24982480 0.10000000)
		(-0.92000000 -0.24982480 0.10000000)
		(-0.90000000 -0.24982480 0.10000000)
		(-0.88000000 -0.24982480 0.10000000)
		(-0.86000000 -0.24982480 0.10000000)
		(-0.84000000 -0.24982480 0.10000000)
		(-0.82000000 -0.24982480 0.10000000)
		(-0.80000000 -0.24982480 0.10000000)
		(-0.78000000 -0.24982480 0.10000000)
		(-0.76000000 -0.24982480 0.10000000)
		(-0.74000000 -0.24982480 0.10000000)
		(-0.72000000 -0.24982480 0.10000000)
		(-0.70000000 -0.24982480 0.10000000)
		(-0.68000000 -0.24982480 0.10000000)
		(-0.66000000 -0.24982480 0.10000000)
		(-0.64000000 -0.24982480 0.10000000)
		(-0.62000000 -0.24982480 0.10000000)
		(-0.60000000 -0.24982480 0.10000000)
		(-0.58000000 -0.24982480 0.10000000)
		(-0.56000000 -0.24982480 0.10000000)
		(-0.54000000 -0.24982480 0.10000000)
		(-0.52000000 -0.24982480 0.10000000)
		(-0.50000000 -0.24982480 0.10000000)
		(-0.48000000 -0.24982480 0.10000000)
		(-0.46000000 -0.24982480 0.10000000)
		(-0.44000000 -0.24982480 0.10000000)
		(-0.42000000 -0.24982480 0.10000000)
		(-0.40000000 -0.24982480 0.10000000)
		(-0.38000000 -0.24982480 0.10000000)
		(-0.36000000 -0.24982480 0.10000000)
		(-0.34000000 -0.24982480 0.10000000)
		(-0.32000000 -0.24982480 0.10000000)
		(-0.30000000 -0.24982480 0.10000000)
		(-0.28000000 -0.24982480 0.10000000)
		(-0.26000000 -0.24982480 0.10000000)
		(-0.24000000 -0.24982480 0.10000000)
		(-0.22000000 -0.24982480 0.10000000)
		(-0.20000000 -0.24982480 0.10000000)
		(-0.18000000 -0.24982480 0.10000000)
		(-0.16000000 -0.24982480 0.10000000)
		(-0.14000000 -0.24982480 0.10000000)
		(-0.12000000 -0.24982480 0.10000000)
		(-0.10000000 -0.24982480 0.10000000)
		(-0.08162011 -0.24950183 0.10000000)
		(-0.06324022 -0.24853293 0.10000000)
		(-0.04486034 -0.24691809 0.10000000)
		(-0.02648045 -0.24465732 0.10000000)
		(-0.00810056 -0.24175061 0.10000000)
		(0.01027933 -0.23819797 0.10000000)
		(0.02865922 -0.23399940 0.10000000)
		(0.04703911 -0.22915489 0.10000000)
		(0.06541899 -0.22366444 0.10000000)
		(0.08379888 -0.21752806 0.10000000)
		(0.10055866 -0.20477564 0.10000000)
		(0.11731844 -0.19015371 0.10000000)
		(0.13407821 -0.17379575 0.10000000)
		(0.15083799 -0.15585111 0.10000000)
		(0.16759777 -0.13648362 0.10000000)
		(0.18435754 -0.11587009 0.10000000)
		(0.20111732 -0.09419872 0.10000000)
		(0.21787709 -0.07166735 0.10000000)
		(0.23463687 -0.04848169 0.10000000)
		(0.25139665 -0.02485341 0.10000000)
		(0.26815642 -0.00099823 0.10000000)
		(0.28491620 0.02286606 0.10000000)
		(0.30167598 0.04652160 0.10000000)
		(0.31843575 0.06975241 0.10000000)
		(0.33519553 0.09234641 0.10000000)
		(0.35195531 0.11409733 0.10000000)
		(0.36871508 0.13480659 0.10000000)
		(0.38547486 0.15428512 0.10000000)
		(0.40223464 0.17235510 0.10000000)
		(0.41899441 0.18885154 0.10000000)
		(0.43575419 0.20362386 0.10000000)
		(0.45251397 0.21653717 0.10000000)
		(0.46927374 0.22747359 0.10000000)
		(0.48603352 0.23633327 0.10000000)
		(0.50279330 0.24303534 0.10000000)
		(0.51955307 0.24751859 0.10000000)
		(0.53631285 0.24974210 0.10000000)
		(0.55307263 0.24968558 0.10000000)
		(0.56983240 0.24734953 0.10000000)
		(0.58659218 0.24275528 0.10000000)
		(0.60335196 0.23594478 0.10000000)
		(0.62011173 0.22698021 0.10000000)
		(0.63687151 0.21594341 0.10000000)
		(0.65363128 0.20293513 0.10000000)
		(0.67039106 0.18807414 0.10000000)
		(0.68715084 0.17149612 0.10000000)
		(0.70391061 0.15335240 0.10000000)
		(0.72067039 0.13380865 0.10000000)
		(0.73743017 0.11304328 0.10000000)
		(0.75418994 0.09124587 0.10000000)
		(0.77094972 0.06861543 0.10000000)
		(0.78770950 0.04535856 0.10000000)
		(0.80446927 0.02168758 0.10000000)
		(0.82122905 -0.00218139 0.10000000)
		(0.83798883 -0.02603045 0.10000000)
		(0.85474860 -0.04964187 0.10000000)
		(0.87150838 -0.07280007 0.10000000)
		(0.88826816 -0.09529364 0.10000000)
		(0.90502793 -0.11691722 0.10000000)
		(0.92178771 -0.13747340 0.10000000)
		(0.93854749 -0.15677450 0.10000000)
		(0.95530726 -0.17464432 0.10000000)
		(0.97206704 -0.19091970 0.10000000)
		(0.98882682 -0.20545208 0.10000000)
		(1.00558659 -0.21810876 0.10000000)
		(1.02234637 -0.22877421 0.10000000)
		(1.03910615 -0.23735104 0.10000000)
		(1.05586592 -0.24376096 0.10000000)
		(1.07262570 -0.24794544 0.10000000)
		(1.08938547 -0.24986629 0.10000000)
		(1.10614525 -0.24950596 0.10000000)
		(1.12290503 -0.24686776 0.10000000)
		(1.13966480 -0.24197575 0.10000000)
		(1.15642458 -0.23487461 0.10000000)
		(1.17318436 -0.22562916 0.10000000)
		(1.18994413 -0.21432382 0.10000000)
		(1.20670391 -0.20106179 0.10000000)
		(1.22346369 -0.18596415 0.10000000)
		(1.24022346 -0.16916874 0.10000000)
		(1.25698324 -0.15082889 0.10000000)
		(1.27374302 -0.13111203 0.10000000)
		(1.29050279 -0.11019818 0.10000000)
		(1.30726257 -0.08827827 0.10000000)
		(1.32402235 -0.06555241 0.10000000)
		(1.34078212 -0.04222809 0.10000000)
		(1.35754190 -0.01851824 0.10000000)
		(1.37430168 0.00536067 0.10000000)
		(1.39106145 0.02919064 0.10000000)
		(1.40782123 0.05275411 0.10000000)
		(1.42458101 0.07583596 0.10000000)
		(1.44134078 0.09822546 0.10000000)
		(1.45810056 0.11971820 0.10000000)
		(1.47486034 0.14011796 0.10000000)
		(1.49162011 0.15923851 0.10000000)
		(1.50837989 0.17690528 0.10000000)
		(1.52513966 0.19295698 0.10000000)
		(1.54189944 0.20724707 0.10000000)
		(1.55865922 0.21964507 0.10000000)
		(1.57541899 0.23003781 0.10000000)
		(1.59217877 0.23833041 0.10000000)
		(1.60893855 0.24444714 0.10000000)
		(1.62569832 0.24833218 0.10000000)
		(1.64245810 0.24995006 0.10000000)
		(1.65921788 0.24928599 0.10000000)
		(1.67597765 0.24634605 0.10000000)
		(1.69273743 0.24115708 0.10000000)
		(1.70949721 0.23376644 0.10000000)
		(1.72625698 0.22424162 0.10000000)
		(1.74301676 0.21266956 0.10000000)
		(1.75977654 0.19915592 0.10000000)
		(1.77653631 0.18382408 0.10000000)
		(1.79329609 0.16681400 0.10000000)
		(1.81005587 0.14828097 0.10000000)
		(1.82681564 0.12839421 0.10000000)
		(1.84357542 0.10733526 0.10000000)
		(1.86033520 0.08529639 0.10000000)
		(1.87709497 0.06247879 0.10000000)
		(1.89385475 0.03909079 0.10000000)
		(1.91061453 0.01534591 0.10000000)
		(1.92737430 -0.00853907 0.10000000)
		(1.94413408 -0.03234610 0.10000000)
		(1.96089385 -0.05585781 0.10000000)
		(1.97765363 -0.07885958 0.10000000)
		(1.99441341 -0.10114138 0.10000000)
		(2.01117318 -0.12249981 0.10000000)
		(2.02793296 -0.14273987 0.10000000)
		(2.04469274 -0.16167677 0.10000000)
		(2.06145251 -0.17913763 0.10000000)
		(2.07821229 -0.19496305 0.10000000)
		(2.09497207 -0.20900853 0.10000000)
		(2.11173184 -0.22114585 0.10000000)
		(2.12849162 -0.23126421 0.10000000)
		(2.14525140 -0.23927122 0.10000000)
		(2.16201117 -0.24509379 0.10000000)
		(2.17877095 -0.24867876 0.10000000)
		(2.19553073 -0.24999339 0.10000000)
		(2.21229050 -0.24902569 0.10000000)
		(2.22905028 -0.24578450 0.10000000)
		(2.24581006 -0.24029939 0.10000000)
		(2.26256983 -0.23262046 0.10000000)
		(2.27932961 -0.22281780 0.10000000)
		(2.29608939 -0.21098090 0.10000000)
		(2.31284916 -0.19721784 0.10000000)
		(2.32960894 -0.18165427 0.10000000)
		(2.34636872 -0.16443227 0.10000000)
		(2.36312849 -0.14570907 0.10000000)
		(2.37988827 -0.12565561 0.10000000)
		(2.39664804 -0.10445497 0.10000000)
		(2.41340782 -0.08230070 0.10000000)
		(2.43016760 -0.05939506 0.10000000)
		(2.44692737 -0.03594717 0.10000000)
		(2.46368715 -0.01217110 0.10000000)
		(2.48044693 0.01171610 0.10000000)
		(2.49720670 0.03549632 0.10000000)
		(2.51396648 0.05895249 0.10000000)
		(2.53072626 0.08187044 0.10000000)
		(2.54748603 0.10404095 0.10000000)
		(2.56424581 0.12526161 0.10000000)
		(2.58100559 0.14533868 0.10000000)
		(2.59776536 0.16408887 0.10000000)
		(2.61452514 0.18134101 0.10000000)
		(2.63128492 0.19693757 0.10000000)
		(2.64804469 0.21073618 0.10000000)
		(2.66480447 0.22261086 0.10000000)
		(2.68156425 0.23245320 0.10000000)
		(2.69832402 0.24017333 0.10000000)
		(2.71508380 0.24570079 0.10000000)
		(2.73184358 0.24898510 0.10000000)
		(2.74860335 0.24999629 0.10000000)
		(2.76536313 0.24872512 0.10000000)
		(2.78212291 0.24518319 0.10000000)
		(2.79888268 0.23940284 0.10000000)
		(2.81564246 0.23143685 0.10000000)
		(2.83240223 0.22135793 0.10000000)
		(2.84916201 0.20925812 0.10000000)
		(2.86592179 0.19524786 0.10000000)
		(2.88268156 0.17945508 0.10000000)
		(2.89944134 0.16202395 0.10000000)
		(2.91620112 0.14311360 0.10000000)
		(2.93296089 0.12289669 0.10000000)
		(2.95166480 0.10577789 0.10000000)
		(2.97036872 0.09046107 0.10000000)
		(2.98907263 0.07694622 0.10000000)
		(3.00777654 0.06523336 0.10000000)
		(3.02648045 0.05532247 0.10000000)
		(3.04518436 0.04721357 0.10000000)
		(3.06388827 0.04090664 0.10000000)
		(3.08259218 0.03640169 0.10000000)
		(3.10129609 0.03369872 0.10000000)
		(3.12000000 0.03279773 0.10000000)
		(3.14000000 0.03279773 0.10000000)
		(3.16000000 0.03279773 0.10000000)
		(3.18000000 0.03279773 0.10000000)
		(3.20000000 0.03279773 0.10000000)
		(3.22000000 0.03279773 0.10000000)
		(3.24000000 0.03279773 0.10000000)
		(3.26000000 0.03279773 0.10000000)
		(3.28000000 0.03279773 0.10000000)
		(3.30000000 0.03279773 0.10000000)
		(3.32000000 0.03279773 0.10000000)
		(3.34000000 0.03279773 0.10000000)
		(3.36000000 0.03279773 0.10000000)
		(3.38000000 0.03279773 0.10000000)
		(3.40000000 0.03279773 0.10000000)
		(3.42000000 0.03279773 0.10000000)
		(3.44000000 0.03279773 0.10000000)
		(3.46000000 0.03279773 0.10000000)
		(3.48000000 0.03279773 0.10000000)
		(3.50000000 0.03279773 0.10000000)
		(3.52000000 0.03279773 0.10000000)
		(3.54000000 0.03279773 0.10000000)
		(3.56000000 0.03279773 0.10000000)
		(3.58000000 0.03279773 0.10000000)
		(3.60000000 0.03279773 0.10000000)
		(3.62000000 0.03279773 0.10000000)
		(3.64000000 0.03279773 0.10000000)
		(3.66000000 0.03279773 0.10000000)
		(3.68000000 0.03279773 0.10000000)
		(3.70000000 0.03279773 0.10000000)
		(3.72000000 0.03279773 0.10000000)
		(3.74000000 0.03279773 0.10000000)
		(3.76000000 0.03279773 0.10000000)
		(3.78000000 0.03279773 0.10000000)
		(3.80000000 0.03279773 0.10000000)
		(3.82000000 0.03279773 0.10000000)
		(3.84000000 0.03279773 0.10000000)
		(3.86000000 0.03279773 0.10000000)
		(3.88000000 0.03279773 0.10000000)
		(3.90000000 0.03279773 0.10000000)
		(3.92000000 0.03279773 0.10000000)
		(3.94000000 0.03279773 0.10000000)
		(3.96000000 0.03279773 0.10000000)
		(3.98000000 0.03279773 0.10000000)
		(4.00000000 0.03279773 0.10000000)
	)
	polyLine 3 2
	(
		(-1.00000000 0.25017520 0.00000000)
		(-0.98000000 0.25274421 0.00000000)
		(-0.96000000 0.25531321 0.00000000)
		(-0.94000000 0.25788222 0.00000000)
		(-0.92000000 0.26045122 0.00000000)
		(-0.90000000 0.26302022 0.00000000)
		(-0.88000000 0.26558923 0.00000000)
		(-0.86000000 0.26815823 0.00000000)
		(-0.84000000 0.27072724 0.00000000)
		(-0.82000000 0.27329624 0.00000000)
		(-0.80000000 0.27586525 0.00000000)
		(-0.78000000 0.27843425 0.00000000)
		(-0.76000000 0.28100326 0.00000000)
		(-0.74000000 0.28357226 0.00000000)
		(-0.72000000 0.28614127 0.00000000)
		(-0.70000000 0.28871027 0.00000000)
		(-0.68000000 0.29127927 0.00000000)
		(-0.66000000 0.29384828 0.00000000)
		(-0.64000000 0.29641728 0.00000000)
		(-0.62000000 0.29898629 0.00000000)
		(-0.60000000 0.30155529 0.00000000)
		(-0.58000000 0.30412430 0.00000000)
		(-0.56000000 0.30669330 0.00000000)
		(-0.54000000 0.30926231 0.00000000)
		(-0.52000000 0.31183131 0.00000000)
		(-0.50000000 0.31440032 0.00000000)
		(-0.48000000 0.31696932 0.00000000)
		(-0.46000000 0.31953832 0.00000000)
		(-0.44000000 0.32210733 0.00000000)
		(-0.42000000 0.32467633 0.00000000)
		(-0.40000000 0.32724534 0.00000000)
		(-0.38000000 0.32981434 0.00000000)
		(-0.36000000 0.33238335 0.00000000)
		(-0.34000000 0.33495235 0.00000000)
		(-0.32000000 0.33752136 0.00000000)
		(-0.30000000 0.34009036 0.00000000)
		(-0.28000000 0.34265936 0.00000000)
		(-0.26000000 0.34522837 0.00000000)
		(-0.24000000 0.34779737 0.00000000)
		(-0.22000000 0.35036638 0.00000000)
		(-0.20000000 0.35293538 0.00000000)
		(-0.18000000 0.35550439 0.00000000)
		(-0.16000000 0.35807339 0.00000000)
		(-0.14000000 0.36064240 0.00000000)
		(-0.12000000 0.36321140 0.00000000)
		(-0.10000000 0.36578041 0.00000000)
		(-0.08162011 0.36746849 0.00000000)
		(-0.06324022 0.36936588 0.00000000)
		(-0.04486034 0.37147255 0.00000000)
		(-0.02648045 0.37378853 0.00000000)
		(-0.00810056 0.37631379 0.00000000)
		(0.01027933 0.37904835 0.00000000)
		(0.02865922 0.38199221 0.00000000)
		(0.04703911 0.38514536 0.00000000)
		(0.06541899 0.38850780 0.00000000)
		(0.08379888 0.39207954 0.00000000)
		(0.10055866 0.39840630 0.00000000)
		(0.11731844 0.40566056 0.00000000)
		(0.13407821 0.41377611 0.00000000)
		(0.15083799 0.42267884 0.00000000)
		(0.16759777 0.43228747 0.00000000)
		(0.18435754 0.44251430 0.00000000)
		(0.20111732 0.45326594 0.00000000)
		(0.21787709 0.46444425 0.00000000)
		(0.23463687 0.47594717 0.00000000)
		(0.25139665 0.48766968 0.00000000)
		(0.26815642 0.49950476 0.00000000)
		(0.28491620 0.51134436 0.00000000)
		(0.30167598 0.52308039 0.00000000)
		(0.31843575 0.53460570 0.00000000)
		(0.33519553 0.54581509 0.00000000)
		(0.35195531 0.55660619 0.00000000)
		(0.36871508 0.56688051 0.00000000)
		(0.38547486 0.57654424 0.00000000)
		(0.40223464 0.58550915 0.00000000)
		(0.41899441 0.59369340 0.00000000)
		(0.43575419 0.60102227 0.00000000)
		(0.45251397 0.60742885 0.00000000)
		(0.46927374 0.61285465 0.00000000)
		(0.48603352 0.61725013 0.00000000)
		(0.50279330 0.62057517 0.00000000)
		(0.51955307 0.62279941 0.00000000)
		(0.53631285 0.62390255 0.00000000)
		(0.55307263 0.62387450 0.00000000)
		(0.56983240 0.62271554 0.00000000)
		(0.58659218 0.62043623 0.00000000)
		(0.60335196 0.61705740 0.00000000)
		(0.62011173 0.61260987 0.00000000)
		(0.63687151 0.60713427 0.00000000)
		(0.65363128 0.60068058 0.00000000)
		(0.67039106 0.59330772 0.00000000)
		(0.68715084 0.58508299 0.00000000)
		(0.70391061 0.57608150 0.00000000)
		(0.72067039 0.56638541 0.00000000)
		(0.73743017 0.55608326 0.00000000)
		(0.75418994 0.54526908 0.00000000)
		(0.77094972 0.53404162 0.00000000)
		(0.78770950 0.52250338 0.00000000)
		(0.80446927 0.51075969 0.00000000)
		(0.82122905 0.49891776 0.00000000)
		(0.83798883 0.48708572 0.00000000)
		(0.85474860 0.47537158 0.00000000)
		(0.87150838 0.46388228 0.00000000)
		(0.88826816 0.45272273 0.00000000)
		(0.90502793 0.44199480 0.00000000)
		(0.92178771 0.43179642 0.00000000)
		(0.93854749 0.42222072 0.00000000)
		(0.95530726 0.41335511 0.00000000)
		(0.97206704 0.40528054 0.00000000)
		(0.98882682 0.39807071 0.00000000)
		(1.00558659 0.39179145 0.00000000)
		(1.02234637 0.38650009 0.00000000)
		(1.03910615 0.38224493 0.00000000)
		(1.05586592 0.37906483 0.00000000)
		(1.07262570 0.37698881 0.00000000)
		(1.08938547 0.37603584 0.00000000)
		(1.10614525 0.37621460 0.00000000)
		(1.12290503 0.37752348 0.00000000)
		(1.13966480 0.37995051 0.00000000)
		(1.15642458 0.38347354 0.00000000)
		(1.17318436 0.38806041 0.00000000)
		(1.18994413 0.39366924 0.00000000)
		(1.20670391 0.40024883 0.00000000)
		(1.22346369 0.40773910 0.00000000)
		(1.24022346 0.41607167 0.00000000)
		(1.25698324 0.42517047 0.00000000)
		(1.27374302 0.43495244 0.00000000)
		(1.29050279 0.44532826 0.00000000)
		(1.30726257 0.45620321 0.00000000)
		(1.32402235 0.46747801 0.00000000)
		(1.34078212 0.47904972 0.00000000)
		(1.35754190 0.49081269 0.00000000)
		(1.37430168 0.50265954 0.00000000)
		(1.39106145 0.51448212 0.00000000)
		(1.40782123 0.52617247 0.00000000)
		(1.42458101 0.53762389 0.00000000)
		(1.44134078 0.54873181 0.00000000)
		(1.45810056 0.55939483 0.00000000)
		(1.47486034 0.56951560 0.00000000)
		(1.49162011 0.57900173 0.00000000)
		(1.50837989 0.58776660 0.00000000)
		(1.52513966 0.59573020 0.00000000)
		(1.54189944 0.60281983 0.00000000)
		(1.55865922 0.60897075 0.00000000)
		(1.57541899 0.61412682 0.00000000)
		(1.59217877 0.61824096 0.00000000)
		(1.60893855 0.62127560 0.00000000)
		(1.62569832 0.62320306 0.00000000)
		(1.64245810 0.62400572 0.00000000)
		(1.65921788 0.62367626 0.00000000)
		(1.67597765 0.62221769 0.00000000)
		(1.69273743 0.61964333 0.00000000)
		(1.70949721 0.61597667 0.00000000)
		(1.72625698 0.61125120 0.00000000)
		(1.74301676 0.60551005 0.00000000)
		(1.75977654 0.59880563 0.00000000)
		(1.77653631 0.59119917 0.00000000)
		(1.79329609 0.58276009 0.00000000)
		(1.81005587 0.57356545 0.00000000)
		(1.82681564 0.56369919 0.00000000)
		(1.84357542 0.55325138 0.00000000)
		(1.86033520 0.54231741 0.00000000)
		(1.87709497 0.53099710 0.00000000)
		(1.89385475 0.51939380 0.00000000)
		(1.91061453 0.50761344 0.00000000)
		(1.92737430 0.49576358 0.00000000)
		(1.94413408 0.48395239 0.00000000)
		(1.96089385 0.47228771 0.00000000)
		(1.97765363 0.46087603 0.00000000)
		(1.99441341 0.44982154 0.00000000)
		(2.01117318 0.43922515 0.00000000)
		(2.02793296 0.42918361 0.00000000)
		(2.04469274 0.41978860 0.00000000)
		(2.06145251 0.41112588 0.00000000)
		(2.07821229 0.40327455 0.00000000)
		(2.09497207 0.39630627 0.00000000)
		(2.11173184 0.39028468 0.00000000)
		(2.12849162 0.38526474 0.00000000)
		(2.14525140 0.38129228 0.00000000)
		(2.16201117 0.37840358 0.00000000)
		(2.17877095 0.37662500 0.00000000)
		(2.19553073 0.37597278 0.00000000)
		(2.21229050 0.37645288 0.00000000)
		(2.22905028 0.37806091 0.00000000)
		(2.24581006 0.38078219 0.00000000)
		(2.26256983 0.38459188 0.00000000)
		(2.27932961 0.38945519 0.00000000)
		(2.29608939 0.39532773 0.00000000)
		(2.31284916 0.40215589 0.00000000)
		(2.32960894 0.40987732 0.00000000)
		(2.34636872 0.41842153 0.00000000)
		(2.36312849 0.42771052 0.00000000)
		(2.37988827 0.43765949 0.00000000)
		(2.39664804 0.44817759 0.00000000)
		(2.41340782 0.45916881 0.00000000)
		(2.43016760 0.47053280 0.00000000)
		(2.44692737 0.48216582 0.00000000)
		(2.46368715 0.49396165 0.00000000)
		(2.48044693 0.50581261 0.00000000)
		(2.49720670 0.51761051 0.00000000)
		(2.51396648 0.52924763 0.00000000)
		(2.53072626 0.54061772 0.00000000)