/*--------------------------------*- C++ -*----------------------------------*\\
/*--------------------------------*- C++ -*----------------------------------*\\
| =========                 |                                                 |
| \\\\      /  F ield         | OpenFOAM: The Open Source CFD Toolbox           |
|  \\\\    /   O peration     | Version:  v2012                                 |
|   \\\\  /    A nd           | Website:  www.openfoam.com                      |
|    \\\\/     M anipulation  |                                                 |
\\*---------------------------------------------------------------------------*/
FoamFile
{
    version     2.0;
    format      ascii;
    class       dictionary;
    object      blockMeshDict;
}
// * * * * * * * * * * * * * * * * * * * * * * * * * * * * * * * * * * * * * //

scale   0.01;

xmin -1;
xmax 5;
ymin 0;
ymax 0.5;
zmin 0;
zmax 0.1;

vertices
(
    (-1.00000000 -0.16028566 0.00000000)
    (4.00000000 0.24835294 0.00000000)
    (4.00000000 0.74835294 0.00000000)
    (-1.00000000 0.33971434 0.00000000)
    (-1.00000000 -0.16028566 0.10000000)
    (4.00000000 0.24835294 0.10000000)
    (4.00000000 0.74835294 0.10000000)
    (-1.00000000 0.33971434 0.10000000)
);

blocks
(
    hex (0 1 2 3 4 5 6 7) (200 20 1) simpleGrading (1 1 1)
);

edges
(
	polyLine 0 1
	(
		(-1.00000000 -0.16028566 0.00000000)
		(-0.98000000 -0.16028566 0.00000000)
		(-0.96000000 -0.16028566 0.00000000)
		(-0.94000000 -0.16028566 0.00000000)
		(-0.92000000 -0.16028566 0.00000000)
		(-0.90000000 -0.16028566 0.00000000)
		(-0.88000000 -0.16028566 0.00000000)
		(-0.86000000 -0.16028566 0.00000000)
		(-0.84000000 -0.16028566 0.00000000)
		(-0.82000000 -0.16028566 0.00000000)
		(-0.80000000 -0.16028566 0.00000000)
		(-0.78000000 -0.16028566 0.00000000)
		(-0.76000000 -0.16028566 0.00000000)
		(-0.74000000 -0.16028566 0.00000000)
		(-0.72000000 -0.16028566 0.00000000)
		(-0.70000000 -0.16028566 0.00000000)
		(-0.68000000 -0.16028566 0.00000000)
		(-0.66000000 -0.16028566 0.00000000)
		(-0.64000000 -0.16028566 0.00000000)
		(-0.62000000 -0.16028566 0.00000000)
		(-0.60000000 -0.16028566 0.00000000)
		(-0.58000000 -0.16028566 0.00000000)
		(-0.56000000 -0.16028566 0.00000000)
		(-0.54000000 -0.16028566 0.00000000)
		(-0.52000000 -0.16028566 0.00000000)
		(-0.50000000 -0.16028566 0.00000000)
		(-0.48000000 -0.16028566 0.00000000)
		(-0.46000000 -0.16028566 0.00000000)
		(-0.44000000 -0.16028566 0.00000000)
		(-0.42000000 -0.16028566 0.00000000)
		(-0.40000000 -0.16028566 0.00000000)
		(-0.38000000 -0.16028566 0.00000000)
		(-0.36000000 -0.16028566 0.00000000)
		(-0.34000000 -0.16028566 0.00000000)
		(-0.32000000 -0.16028566 0.00000000)
		(-0.30000000 -0.16028566 0.00000000)
		(-0.28000000 -0.16028566 0.00000000)
		(-0.26000000 -0.16028566 0.00000000)
		(-0.24000000 -0.16028566 0.00000000)
		(-0.22000000 -0.16028566 0.00000000)
		(-0.20000000 -0.16028566 0.00000000)
		(-0.18000000 -0.16028566 0.00000000)
		(-0.16000000 -0.16028566 0.00000000)
		(-0.14000000 -0.16028566 0.00000000)
		(-0.12000000 -0.16028566 0.00000000)
		(-0.10000000 -0.16028566 0.00000000)
		(-0.08162011 -0.16076860 0.00000000)
		(-0.06324022 -0.16221740 0.00000000)
		(-0.04486034 -0.16463208 0.00000000)
		(-0.02648045 -0.16801263 0.00000000)
		(-0.00810056 -0.17235905 0.00000000)
		(0.01027933 -0.17767134 0.00000000)
		(0.02865922 -0.18394950 0.00000000)
		(0.04703911 -0.19119353 0.00000000)
		(0.06541899 -0.19940344 0.00000000)
		(0.08379888 -0.20857921 0.00000000)
		(0.10055866 -0.21624038 0.00000000)
		(0.11731844 -0.22316976 0.00000000)
		(0.13407821 -0.22934391 0.00000000)
		(0.15083799 -0.23474195 0.00000000)
		(0.16759777 -0.23934559 0.00000000)
		(0.18435754 -0.24313926 0.00000000)
		(0.20111732 -0.24611013 0.00000000)
		(0.21787709 -0.24824813 0.00000000)
		(0.23463687 -0.24954604 0.00000000)
		(0.25139665 -0.24999945 0.00000000)
		(0.26815642 -0.24960685 0.00000000)
		(0.28491620 -0.24836955 0.00000000)
		(0.30167598 -0.24629174 0.00000000)
		(0.31843575 -0.24338046 0.00000000)
		(0.33519553 -0.23964555 0.00000000)
		(0.35195531 -0.23509965 0.00000000)
		(0.36871508 -0.22975816 0.00000000)
		(0.38547486 -0.22363914 0.00000000)
		(0.40223464 -0.21676331 0.00000000)
		(0.41899441 -0.20915392 0.00000000)
		(0.43575419 -0.20083674 0.00000000)
		(0.45251397 -0.19183991 0.00000000)
		(0.46927374 -0.18219387 0.00000000)
		(0.48603352 -0.17193127 0.00000000)
		(0.50279330 -0.16108683 0.00000000)
		(0.51955307 -0.14969726 0.00000000)
		(0.53631285 -0.13780110 0.00000000)
		(0.55307263 -0.12543861 0.00000000)
		(0.56983240 -0.11265162 0.00000000)
		(0.58659218 -0.09948341 0.00000000)
		(0.60335196 -0.08597853 0.00000000)
		(0.62011173 -0.07218270 0.00000000)
		(0.63687151 -0.05814259 0.00000000)
		(0.65363128 -0.04390572 0.00000000)
		(0.67039106 -0.02952027 0.00000000)
		(0.68715084 -0.01503492 0.00000000)
		(0.70391061 -0.00049869 0.00000000)
		(0.72067039 0.01403923 0.00000000)
		(0.73743017 0.02852964 0.00000000)
		(0.75418994 0.04292350 0.00000000)
		(0.77094972 0.05717210 0.00000000)
		(0.78770950 0.07122723 0.00000000)
		(0.80446927 0.08504131 0.00000000)
		(0.82122905 0.09856761 0.00000000)
		(0.83798883 0.11176035 0.00000000)
		(0.85474860 0.12457487 0.00000000)
		(0.87150838 0.13696783 0.00000000)
		(0.88826816 0.14889727 0.00000000)
		(0.90502793 0.16032282 0.00000000)
		(0.92178771 0.17120583 0.00000000)
		(0.93854749 0.18150946 0.00000000)
		(0.95530726 0.19119885 0.00000000)
		(0.97206704 0.20024119 0.00000000)
		(0.98882682 0.20860591 0.00000000)
		(1.00558659 0.21626467 0.00000000)
		(1.02234637 0.22319158 0.00000000)
		(1.03910615 0.22936319 0.00000000)
		(1.05586592 0.23475860 0.00000000)
		(1.07262570 0.23935957 0.00000000)
		(1.08938547 0.24315052 0.00000000)
		(1.10614525 0.24611863 0.00000000)
		(1.12290503 0.24825385 0.00000000)
		(1.13966480 0.24954895 0.00000000)
		(1.15642458 0.24999955 0.00000000)
		(1.17318436 0.24960413 0.00000000)
		(1.18994413 0.24836402 0.00000000)
		(1.20670391 0.24628342 0.00000000)
		(1.22346369 0.24336938 0.00000000)
		(1.24022346 0.23963175 0.00000000)
		(1.25698324 0.23508318 0.00000000)
		(1.27374302 0.22973907 0.00000000)
		(1.29050279 0.22361749 0.00000000)
		(1.30726257 0.21673918 0.00000000)
		(1.32402235 0.20912739 0.00000000)
		(1.34078212 0.20080790 0.00000000)
		(1.35754190 0.19180885 0.00000000)
		(1.37430168 0.18216070 0.00000000)
		(1.39106145 0.17189610 0.00000000)
		(1.40782123 0.16104979 0.00000000)
		(1.42458101 0.14965847 0.00000000)
		(1.44134078 0.13776069 0.00000000)
		(1.45810056 0.12539672 0.00000000)
		(1.47486034 0.11260839 0.00000000)
		(1.49162011 0.09943898 0.00000000)
		(1.50837989 0.08593306 0.00000000)
		(1.52513966 0.07213633 0.00000000)
		(1.54189944 0.05809549 0.00000000)
		(1.55865922 0.04385804 0.00000000)
		(1.57541899 0.02947218 0.00000000)
		(1.59217877 0.01498658 0.00000000)
		(1.60893855 0.00045026 0.00000000)
		(1.62569832 -0.01408758 0.00000000)
		(1.64245810 -0.02857775 0.00000000)
		(1.65921788 -0.04297121 0.00000000)
		(1.67597765 -0.05721924 0.00000000)
		(1.69273743 -0.07127365 0.00000000)
		(1.70949721 -0.08508685 0.00000000)
		(1.72625698 -0.09861211 0.00000000)
		(1.74301676 -0.11180366 0.00000000)
		(1.75977654 -0.12461686 0.00000000)
		(1.77653631 -0.13700834 0.00000000)
		(1.79329609 -0.14893617 0.00000000)
		(1.81005587 -0.16035998 0.00000000)
		(1.82681564 -0.17124112 0.00000000)
		(1.84357542 -0.18154276 0.00000000)
		(1.86033520 -0.19123004 0.00000000)
		(1.87709497 -0.20027019 0.00000000)
		(1.89385475 -0.20863259 0.00000000)
		(1.91061453 -0.21628897 0.00000000)
		(1.92737430 -0.22321340 0.00000000)
		(1.94413408 -0.22938245 0.00000000)
		(1.96089385 -0.23477525 0.00000000)
		(1.97765363 -0.23937355 0.00000000)
		(1.99441341 -0.24316178 0.00000000)
		(2.01117318 -0.24612713 0.00000000)
		(2.02793296 -0.24825956 0.00000000)
		(2.04469274 -0.24955185 0.00000000)
		(2.06145251 -0.24999964 0.00000000)
		(2.07821229 -0.24960140 0.00000000)
		(2.09497207 -0.24835848 0.00000000)
		(2.11173184 -0.24627510 0.00000000)
		(2.12849162 -0.24335830 0.00000000)
		(2.14525140 -0.23961794 0.00000000)
		(2.16201117 -0.23506670 0.00000000)
		(2.17877095 -0.22971996 0.00000000)
		(2.19553073 -0.22359584 0.00000000)
		(2.21229050 -0.21671504 0.00000000)
		(2.22905028 -0.20910085 0.00000000)
		(2.24581006 -0.20077905 0.00000000)
		(2.26256983 -0.19177779 0.00000000)
		(2.27932961 -0.18212753 0.00000000)
		(2.29608939 -0.17186094 0.00000000)
		(2.31284916 -0.16101275 0.00000000)
		(2.32960894 -0.14961968 0.00000000)
		(2.34636872 -0.13772028 0.00000000)
		(2.36312849 -0.12535482 0.00000000)
		(2.37988827 -0.11256515 0.00000000)
		(2.39664804 -0.09939454 0.00000000)
		(2.41340782 -0.08588758 0.00000000)
		(2.43016760 -0.07208996 0.00000000)
		(2.44692737 -0.05804838 0.00000000)
		(2.46368715 -0.04381036 0.00000000)
		(2.48044693 -0.02942409 0.00000000)
		(2.49720670 -0.01493823 0.00000000)
		(2.51396648 -0.00040183 0.00000000)
		(2.53072626 0.01413593 0.00000000)
		(2.54748603 0.02862586 0.00000000)
		(2.56424581 0.04301891 0.00000000)
		(2.58100559 0.05726639 0.00000000)
		(2.59776536 0.07132006 0.00000000)
		(2.61452514 0.08513239 0.00000000)
		(2.63128492 0.09865661 0.00000000)
		(2.64804469 0.11184698 0.00000000)
		(2.66480447 0.12465884 0.00000000)
		(2.68156425 0.13704884 0.00000000)
		(2.69832402 0.14897506 0.00000000)
		(2.71508380 0.16039713 0.00000000)
		(2.73184358 0.17127640 0.00000000)
		(2.74860335 0.18157605 0.00000000)
		(2.76536313 0.19126123 0.00000000)
		(2.78212291 0.20029917 0.00000000)
		(2.79888268 0.20865927 0.00000000)
		(2.81564246 0.21631325 0.00000000)
		(2.83240223 0.22323520 0.00000000)
		(2.84916201 0.22940170 0.00000000)
		(2.86592179 0.23479189 0.00000000)
		(2.88268156 0.23938751 0.00000000)
		(2.89944134 0.24317302 0.00000000)
		(2.91620112 0.24613561 0.00000000)
		(2.93296089 0.24826526 0.00000000)
		(2.95166480 0.24828192 0.00000000)
		(2.97036872 0.24829682 0.00000000)
		(2.98907263 0.24830997 0.00000000)
		(3.00777654 0.24832137 0.00000000)
		(3.02648045 0.24833102 0.00000000)
		(3.04518436 0.24833891 0.00000000)
		(3.06388827 0.24834505 0.00000000)
		(3.08259218 0.24834943 0.00000000)
		(3.10129609 0.24835206 0.00000000)
		(3.12000000 0.24835294 0.00000000)
		(3.14000000 0.24835294 0.00000000)
		(3.16000000 0.24835294 0.00000000)
		(3.18000000 0.24835294 0.00000000)
		(3.20000000 0.24835294 0.00000000)
		(3.22000000 0.24835294 0.00000000)
		(3.24000000 0.24835294 0.00000000)
		(3.26000000 0.24835294 0.00000000)
		(3.28000000 0.24835294 0.00000000)
		(3.30000000 0.24835294 0.00000000)
		(3.32000000 0.24835294 0.00000000)
		(3.34000000 0.24835294 0.00000000)
		(3.36000000 0.24835294 0.00000000)
		(3.38000000 0.24835294 0.00000000)
		(3.40000000 0.24835294 0.00000000)
		(3.42000000 0.24835294 0.00000000)
		(3.44000000 0.24835294 0.00000000)
		(3.46000000 0.24835294 0.00000000)
		(3.48000000 0.24835294 0.00000000)
		(3.50000000 0.24835294 0.00000000)
		(3.52000000 0.24835294 0.00000000)
		(3.54000000 0.24835294 0.00000000)
		(3.56000000 0.24835294 0.00000000)
		(3.58000000 0.24835294 0.00000000)
		(3.60000000 0.24835294 0.00000000)
		(3.62000000 0.24835294 0.00000000)
		(3.64000000 0.24835294 0.00000000)
		(3.66000000 0.24835294 0.00000000)
		(3.68000000 0.24835294 0.00000000)
		(3.70000000 0.24835294 0.00000000)
		(3.72000000 0.24835294 0.00000000)
		(3.74000000 0.24835294 0.00000000)
		(3.76000000 0.24835294 0.00000000)
		(3.78000000 0.24835294 0.00000000)
		(3.80000000 0.24835294 0.00000000)
		(3.82000000 0.24835294 0.00000000)
		(3.84000000 0.24835294 0.00000000)
		(3.86000000 0.24835294 0.00000000)
		(3.88000000 0.24835294 0.00000000)
		(3.90000000 0.24835294 0.00000000)
		(3.92000000 0.24835294 0.00000000)
		(3.94000000 0.24835294 0.00000000)
		(3.96000000 0.24835294 0.00000000)
		(3.98000000 0.24835294 0.00000000)
		(4.00000000 0.24835294 0.00000000)
	)
	polyLine 4 5
	(
		(-1.00000000 -0.16028566 0.10000000)
		(-0.98000000 -0.16028566 0.10000000)
		(-0.96000000 -0.16028566 0.10000000)
		(-0.94000000 -0.16028566 0.10000000)
		(-0.92000000 -0.16028566 0.10000000)
		(-0.90000000 -0.16028566 0.10000000)
		(-0.88000000 -0.16028566 0.10000000)
		(-0.86000000 -0.16028566 0.10000000)
		(-0.84000000 -0.16028566 0.10000000)
		(-0.82000000 -0.16028566 0.10000000)
		(-0.80000000 -0.16028566 0.10000000)
		(-0.78000000 -0.16028566 0.10000000)
		(-0.76000000 -0.16028566 0.10000000)
		(-0.74000000 -0.16028566 0.10000000)
		(-0.72000000 -0.16028566 0.10000000)
		(-0.70000000 -0.16028566 0.10000000)
		(-0.68000000 -0.16028566 0.10000000)
		(-0.66000000 -0.16028566 0.10000000)
		(-0.64000000 -0.16028566 0.10000000)
		(-0.62000000 -0.16028566 0.10000000)
		(-0.60000000 -0.16028566 0.10000000)
		(-0.58000000 -0.16028566 0.10000000)
		(-0.56000000 -0.16028566 0.10000000)
		(-0.54000000 -0.16028566 0.10000000)
		(-0.52000000 -0.16028566 0.10000000)
		(-0.50000000 -0.16028566 0.10000000)
		(-0.48000000 -0.16028566 0.10000000)
		(-0.46000000 -0.16028566 0.10000000)
		(-0.44000000 -0.16028566 0.10000000)
		(-0.42000000 -0.16028566 0.10000000)
		(-0.40000000 -0.16028566 0.10000000)
		(-0.38000000 -0.16028566 0.10000000)
		(-0.36000000 -0.16028566 0.10000000)
		(-0.34000000 -0.16028566 0.10000000)
		(-0.32000000 -0.16028566 0.10000000)
		(-0.30000000 -0.16028566 0.10000000)
		(-0.28000000 -0.16028566 0.10000000)
		(-0.26000000 -0.16028566 0.10000000)
		(-0.24000000 -0.16028566 0.10000000)
		(-0.22000000 -0.16028566 0.10000000)
		(-0.20000000 -0.16028566 0.10000000)
		(-0.18000000 -0.16028566 0.10000000)
		(-0.16000000 -0.16028566 0.10000000)
		(-0.14000000 -0.16028566 0.10000000)
		(-0.12000000 -0.16028566 0.10000000)
		(-0.10000000 -0.16028566 0.10000000)
		(-0.08162011 -0.16076860 0.10000000)
		(-0.06324022 -0.16221740 0.10000000)
		(-0.04486034 -0.16463208 0.10000000)
		(-0.02648045 -0.16801263 0.10000000)
		(-0.00810056 -0.17235905 0.10000000)
		(0.01027933 -0.17767134 0.10000000)
		(0.02865922 -0.18394950 0.10000000)
		(0.04703911 -0.19119353 0.10000000)
		(0.06541899 -0.19940344 0.10000000)
		(0.08379888 -0.20857921 0.10000000)
		(0.10055866 -0.21624038 0.10000000)
		(0.11731844 -0.22316976 0.10000000)
		(0.13407821 -0.22934391 0.10000000)
		(0.15083799 -0.23474195 0.10000000)
		(0.16759777 -0.23934559 0.10000000)
		(0.18435754 -0.24313926 0.10000000)
		(0.20111732 -0.24611013 0.10000000)
		(0.21787709 -0.24824813 0.10000000)
		(0.23463687 -0.24954604 0.10000000)
		(0.25139665 -0.24999945 0.10000000)
		(0.26815642 -0.24960685 0.10000000)
		(0.28491620 -0.24836955 0.10000000)
		(0.30167598 -0.24629174 0.10000000)
		(0.31843575 -0.24338046 0.10000000)
		(0.33519553 -0.23964555 0.10000000)
		(0.35195531 -0.23509965 0.10000000)
		(0.36871508 -0.22975816 0.10000000)
		(0.38547486 -0.22363914 0.10000000)
		(0.40223464 -0.21676331 0.10000000)
		(0.41899441 -0.20915392 0.10000000)
		(0.43575419 -0.20083674 0.10000000)
		(0.45251397 -0.19183991 0.10000000)
		(0.46927374 -0.18219387 0.10000000)
		(0.48603352 -0.17193127 0.10000000)
		(0.50279330 -0.16108683 0.10000000)
		(0.51955307 -0.14969726 0.10000000)
		(0.53631285 -0.13780110 0.10000000)
		(0.55307263 -0.12543861 0.10000000)
		(0.56983240 -0.11265162 0.10000000)
		(0.58659218 -0.09948341 0.10000000)
		(0.60335196 -0.08597853 0.10000000)
		(0.62011173 -0.07218270 0.10000000)
		(0.63687151 -0.05814259 0.10000000)
		(0.65363128 -0.04390572 0.10000000)
		(0.67039106 -0.02952027 0.10000000)
		(0.68715084 -0.01503492 0.10000000)
		(0.70391061 -0.00049869 0.10000000)
		(0.72067039 0.01403923 0.10000000)
		(0.73743017 0.02852964 0.10000000)
		(0.75418994 0.04292350 0.10000000)
		(0.77094972 0.05717210 0.10000000)
		(0.78770950 0.07122723 0.10000000)
		(0.80446927 0.08504131 0.10000000)
		(0.82122905 0.09856761 0.10000000)
		(0.83798883 0.11176035 0.10000000)
		(0.85474860 0.12457487 0.10000000)
		(0.87150838 0.13696783 0.10000000)
		(0.88826816 0.14889727 0.10000000)
		(0.90502793 0.16032282 0.10000000)
		(0.92178771 0.17120583 0.10000000)
		(0.93854749 0.18150946 0.10000000)
		(0.95530726 0.19119885 0.10000000)
		(0.97206704 0.20024119 0.10000000)
		(0.98882682 0.20860591 0.10000000)
		(1.00558659 0.21626467 0.10000000)
		(1.02234637 0.22319158 0.10000000)
		(1.03910615 0.22936319 0.10000000)
		(1.05586592 0.23475860 0.10000000)
		(1.07262570 0.23935957 0.10000000)
		(1.08938547 0.24315052 0.10000000)
		(1.10614525 0.24611863 0.10000000)
		(1.12290503 0.24825385 0.10000000)
		(1.13966480 0.24954895 0.10000000)
		(1.15642458 0.24999955 0.10000000)
		(1.17318436 0.24960413 0.10000000)
		(1.18994413 0.24836402 0.10000000)
		(1.20670391 0.24628342 0.10000000)
		(1.22346369 0.24336938 0.10000000)
		(1.24022346 0.23963175 0.10000000)
		(1.25698324 0.23508318 0.10000000)
		(1.27374302 0.22973907 0.10000000)
		(1.29050279 0.22361749 0.10000000)
		(1.30726257 0.21673918 0.10000000)
		(1.32402235 0.20912739 0.10000000)
		(1.34078212 0.20080790 0.10000000)
		(1.35754190 0.19180885 0.10000000)
		(1.37430168 0.18216070 0.10000000)
		(1.39106145 0.17189610 0.10000000)
		(1.40782123 0.16104979 0.10000000)
		(1.42458101 0.14965847 0.10000000)
		(1.44134078 0.13776069 0.10000000)
		(1.45810056 0.12539672 0.10000000)
		(1.47486034 0.11260839 0.10000000)
		(1.49162011 0.09943898 0.10000000)
		(1.50837989 0.08593306 0.10000000)
		(1.52513966 0.07213633 0.10000000)
		(1.54189944 0.05809549 0.10000000)
		(1.55865922 0.04385804 0.10000000)
		(1.57541899 0.02947218 0.10000000)
		(1.59217877 0.01498658 0.10000000)
		(1.60893855 0.00045026 0.10000000)
		(1.62569832 -0.01408758 0.10000000)
		(1.64245810 -0.02857775 0.10000000)
		(1.65921788 -0.04297121 0.10000000)
		(1.67597765 -0.05721924 0.10000000)
		(1.69273743 -0.07127365 0.10000000)
		(1.70949721 -0.08508685 0.10000000)
		(1.72625698 -0.09861211 0.10000000)
		(1.74301676 -0.11180366 0.10000000)
		(1.75977654 -0.12461686 0.10000000)
		(1.77653631 -0.13700834 0.10000000)
		(1.79329609 -0.14893617 0.10000000)
		(1.81005587 -0.16035998 0.10000000)
		(1.82681564 -0.17124112 0.10000000)
		(1.84357542 -0.18154276 0.10000000)
		(1.86033520 -0.19123004 0.10000000)
		(1.87709497 -0.20027019 0.10000000)
		(1.89385475 -0.20863259 0.10000000)
		(1.91061453 -0.21628897 0.10000000)
		(1.92737430 -0.22321340 0.10000000)
		(1.94413408 -0.22938245 0.10000000)
		(1.96089385 -0.23477525 0.10000000)
		(1.97765363 -0.23937355 0.10000000)
		(1.99441341 -0.24316178 0.10000000)
		(2.01117318 -0.24612713 0.10000000)
		(2.02793296 -0.24825956 0.10000000)
		(2.04469274 -0.24955185 0.10000000)
		(2.06145251 -0.24999964 0.10000000)
		(2.07821229 -0.24960140 0.10000000)
		(2.09497207 -0.24835848 0.10000000)
		(2.11173184 -0.24627510 0.10000000)
		(2.12849162 -0.24335830 0.10000000)
		(2.14525140 -0.23961794 0.10000000)
		(2.16201117 -0.23506670 0.10000000)
		(2.17877095 -0.22971996 0.10000000)
		(2.19553073 -0.22359584 0.10000000)
		(2.21229050 -0.21671504 0.10000000)
		(2.22905028 -0.20910085 0.10000000)
		(2.24581006 -0.20077905 0.10000000)
		(2.26256983 -0.19177779 0.10000000)
		(2.27932961 -0.18212753 0.10000000)
		(2.29608939 -0.17186094 0.10000000)
		(2.31284916 -0.16101275 0.10000000)
		(2.32960894 -0.14961968 0.10000000)
		(2.34636872 -0.13772028 0.10000000)
		(2.36312849 -0.12535482 0.10000000)
		(2.37988827 -0.11256515 0.10000000)
		(2.39664804 -0.09939454 0.10000000)
		(2.41340782 -0.08588758 0.10000000)
		(2.43016760 -0.07208996 0.10000000)
		(2.44692737 -0.05804838 0.10000000)
		(2.46368715 -0.04381036 0.10000000)
		(2.48044693 -0.02942409 0.10000000)
		(2.49720670 -0.01493823 0.10000000)
		(2.51396648 -0.00040183 0.10000000)
		(2.53072626 0.01413593 0.10000000)
		(2.54748603 0.02862586 0.10000000)
		(2.56424581 0.04301891 0.10000000)
		(2.58100559 0.05726639 0.10000000)
		(2.59776536 0.07132006 0.10000000)
		(2.61452514 0.08513239 0.10000000)
		(2.63128492 0.09865661 0.10000000)
		(2.64804469 0.11184698 0.10000000)
		(2.66480447 0.12465884 0.10000000)
		(2.68156425 0.13704884 0.10000000)
		(2.69832402 0.14897506 0.10000000)
		(2.71508380 0.16039713 0.10000000)
		(2.73184358 0.17127640 0.10000000)
		(2.74860335 0.18157605 0.10000000)
		(2.76536313 0.19126123 0.10000000)
		(2.78212291 0.20029917 0.10000000)
		(2.79888268 0.20865927 0.10000000)
		(2.81564246 0.21631325 0.10000000)
		(2.83240223 0.22323520 0.10000000)
		(2.84916201 0.22940170 0.10000000)
		(2.86592179 0.23479189 0.10000000)
		(2.88268156 0.23938751 0.10000000)
		(2.89944134 0.24317302 0.10000000)
		(2.91620112 0.24613561 0.10000000)
		(2.93296089 0.24826526 0.10000000)
		(2.95166480 0.24828192 0.10000000)
		(2.97036872 0.24829682 0.10000000)
		(2.98907263 0.24830997 0.10000000)
		(3.00777654 0.24832137 0.10000000)
		(3.02648045 0.24833102 0.10000000)
		(3.04518436 0.24833891 0.10000000)
		(3.06388827 0.24834505 0.10000000)
		(3.08259218 0.24834943 0.10000000)
		(3.10129609 0.24835206 0.10000000)
		(3.12000000 0.24835294 0.10000000)
		(3.14000000 0.24835294 0.10000000)
		(3.16000000 0.24835294 0.10000000)
		(3.18000000 0.24835294 0.10000000)
		(3.20000000 0.24835294 0.10000000)
		(3.22000000 0.24835294 0.10000000)
		(3.24000000 0.24835294 0.10000000)
		(3.26000000 0.24835294 0.10000000)
		(3.28000000 0.24835294 0.10000000)
		(3.30000000 0.24835294 0.10000000)
		(3.32000000 0.24835294 0.10000000)
		(3.34000000 0.24835294 0.10000000)
		(3.36000000 0.24835294 0.10000000)
		(3.38000000 0.24835294 0.10000000)
		(3.40000000 0.24835294 0.10000000)
		(3.42000000 0.24835294 0.10000000)
		(3.44000000 0.24835294 0.10000000)
		(3.46000000 0.24835294 0.10000000)
		(3.48000000 0.24835294 0.10000000)
		(3.50000000 0.24835294 0.10000000)
		(3.52000000 0.24835294 0.10000000)
		(3.54000000 0.24835294 0.10000000)
		(3.56000000 0.24835294 0.10000000)
		(3.58000000 0.24835294 0.10000000)
		(3.60000000 0.24835294 0.10000000)
		(3.62000000 0.24835294 0.10000000)
		(3.64000000 0.24835294 0.10000000)
		(3.66000000 0.24835294 0.10000000)
		(3.68000000 0.24835294 0.10000000)
		(3.70000000 0.24835294 0.10000000)
		(3.72000000 0.24835294 0.10000000)
		(3.74000000 0.24835294 0.10000000)
		(3.76000000 0.24835294 0.10000000)
		(3.78000000 0.24835294 0.10000000)
		(3.80000000 0.24835294 0.10000000)
		(3.82000000 0.24835294 0.10000000)
		(3.84000000 0.24835294 0.10000000)
		(3.86000000 0.24835294 0.10000000)
		(3.88000000 0.24835294 0.10000000)
		(3.90000000 0.24835294 0.10000000)
		(3.92000000 0.24835294 0.10000000)
		(3.94000000 0.24835294 0.10000000)
		(3.96000000 0.24835294 0.10000000)
		(3.98000000 0.24835294 0.10000000)
		(4.00000000 0.24835294 0.10000000)
	)
	polyLine 3 2
	(
		(-1.00000000 0.33971434 0.00000000)
		(-0.98000000 0.33710816 0.00000000)
		(-0.96000000 0.33450198 0.00000000)
		(-0.94000000 0.33189581 0.00000000)
		(-0.92000000 0.32928963 0.00000000)
		(-0.90000000 0.32668345 0.00000000)
		(-0.88000000 0.32407727 0.00000000)
		(-0.86000000 0.32147110 0.00000000)
		(-0.84000000 0.31886492 0.00000000)
		(-0.82000000 0.31625874 0.00000000)
		(-0.80000000 0.31365256 0.00000000)
		(-0.78000000 0.31104639 0.00000000)
		(-0.76000000 0.30844021 0.00000000)
		(-0.74000000 0.30583403 0.00000000)
		(-0.72000000 0.30322785 0.00000000)
		(-0.70000000 0.30062167 0.00000000)
		(-0.68000000 0.29801550 0.00000000)
		(-0.66000000 0.29540932 0.00000000)
		(-0.64000000 0.29280314 0.00000000)
		(-0.62000000 0.29019696 0.00000000)
		(-0.60000000 0.28759079 0.00000000)
		(-0.58000000 0.28498461 0.00000000)
		(-0.56000000 0.28237843 0.00000000)
		(-0.54000000 0.27977225 0.00000000)
		(-0.52000000 0.27716608 0.00000000)
		(-0.50000000 0.27455990 0.00000000)
		(-0.48000000 0.27195372 0.00000000)
		(-0.46000000 0.26934754 0.00000000)
		(-0.44000000 0.26674136 0.00000000)
		(-0.42000000 0.26413519 0.00000000)
		(-0.40000000 0.26152901 0.00000000)
		(-0.38000000 0.25892283 0.00000000)
		(-0.36000000 0.25631665 0.00000000)
		(-0.34000000 0.25371048 0.00000000)
		(-0.32000000 0.25110430 0.00000000)
		(-0.30000000 0.24849812 0.00000000)
		(-0.28000000 0.24589194 0.00000000)
		(-0.26000000 0.24328577 0.00000000)
		(-0.24000000 0.24067959 0.00000000)
		(-0.22000000 0.23807341 0.00000000)
		(-0.20000000 0.23546723 0.00000000)
		(-0.18000000 0.23286105 0.00000000)
		(-0.16000000 0.23025488 0.00000000)
		(-0.14000000 0.22764870 0.00000000)
		(-0.12000000 0.22504252 0.00000000)
		(-0.10000000 0.22243634 0.00000000)
		(-0.08162011 0.22119594 0.00000000)
		(-0.06324022 0.21807131 0.00000000)
		(-0.04486034 0.21306243 0.00000000)
		(-0.02648045 0.20616932 0.00000000)
		(-0.00810056 0.19739197 0.00000000)
		(0.01027933 0.18673039 0.00000000)
		(0.02865922 0.17418456 0.00000000)
		(0.04703911 0.15975450 0.00000000)
		(0.06541899 0.14344020 0.00000000)
		(0.08379888 0.12524167 0.00000000)
		(0.10055866 0.11147671 0.00000000)
		(0.11731844 0.09902655 0.00000000)
		(0.13407821 0.08793332 0.00000000)
		(0.15083799 0.07823457 0.00000000)
		(0.16759777 0.06996312 0.00000000)
		(0.18435754 0.06314695 0.00000000)
		(0.20111732 0.05780914 0.00000000)
		(0.21787709 0.05396775 0.00000000)
		(0.23463687 0.05163578 0.00000000)
		(0.25139665 0.05082111 0.00000000)
		(0.26815642 0.05152652 0.00000000)
		(0.28491620 0.05374960 0.00000000)
		(0.30167598 0.05748284 0.00000000)
		(0.31843575 0.06271360 0.00000000)
		(0.33519553 0.06942418 0.00000000)
		(0.35195531 0.07759187 0.00000000)
		(0.36871508 0.08718904 0.00000000)
		(0.38547486 0.09818320 0.00000000)
		(0.40223464 0.11053714 0.00000000)
		(0.41899441 0.12420907 0.00000000)
		(0.43575419 0.13915272 0.00000000)
		(0.45251397 0.15531750 0.00000000)
		(0.46927374 0.17264873 0.00000000)
		(0.48603352 0.19108775 0.00000000)
		(0.50279330 0.21057215 0.00000000)
		(0.51955307 0.23103601 0.00000000)
		(0.53631285 0.25241008 0.00000000)
		(0.55307263 0.27462201 0.00000000)
		(0.56983240 0.29759664 0.00000000)
		(0.58659218 0.32125622 0.00000000)
		(0.60335196 0.34552070 0.00000000)
		(0.62011173 0.37030794 0.00000000)
		(0.63687151 0.39553408 0.00000000)
		(0.65363128 0.42111374 0.00000000)
		(0.67039106 0.44696036 0.00000000)
		(0.68715084 0.47298647 0.00000000)
		(0.70391061 0.49910400 0.00000000)
		(0.72067039 0.52522456 0.00000000)
		(0.73743017 0.55125975 0.00000000)
		(0.75418994 0.57712148 0.00000000)
		(0.77094972 0.60272222 0.00000000)
		(0.78770950 0.62797534 0.00000000)
		(0.80446927 0.65279538 0.00000000)
		(0.82122905 0.67709834 0.00000000)
		(0.83798883 0.70080199 0.00000000)
		(0.85474860 0.72382610 0.00000000)
		(0.87150838 0.74609276 0.00000000)
		(0.88826816 0.76752662 0.00000000)
		(0.90502793 0.78805514 0.00000000)
		(0.92178771 0.80760885 0.00000000)
		(0.93854749 0.82612158 0.00000000)
		(0.95530726 0.84353069 0.00000000)
		(0.97206704 0.85977725 0.00000000)
		(0.98882682 0.87480629 0.00000000)
		(1.00558659 0.88856695 0.00000000)
		(1.02234637 0.90101266 0.00000000)
		(1.03910615 0.91210130 0.00000000)
		(1.05586592 0.92179535 0.00000000)
		(1.07262570 0.93006200 0.00000000)
		(1.08938547 0.93687328 0.00000000)
		(1.10614525 0.94220614 0.00000000)
		(1.12290503 0.94604252 0.00000000)
		(1.13966480 0.94836945 0.00000000)
		(1.15642458 0.94917906 0.00000000)
		(1.17318436 0.94846860 0.00000000)
		(1.18994413 0.94624047 0.00000000)
		(1.20670391 0.94250222 0.00000000)
		(1.22346369 0.93726650 0.00000000)
		(1.24022346 0.93055103 0.00000000)
		(1.25698324 0.92237853 0.00000000)
		(1.27374302 0.91277666 0.00000000)
		(1.29050279 0.90177791 0.00000000)
		(1.30726257 0.88941950 0.00000000)
		(1.32402235 0.87574326 0.00000000)
		(1.34078212 0.86079546 0.00000000)
		(1.35754190 0.84462670 0.00000000)
		(1.37430168 0.82729168 0.00000000)
		(1.39106145 0.80884908 0.00000000)
		(1.40782123 0.78936130 0.00000000)
		(1.42458101 0.76889429 0.00000000)
		(1.44134078 0.74751732 0.00000000)
		(1.45810056 0.72530272 0.00000000)
		(1.47486034 0.70232568 0.00000000)
		(1.49162011 0.67866395 0.00000000)
		(1.50837989 0.65439760 0.00000000)
		(1.52513966 0.62960875 0.00000000)
		(1.54189944 0.60438129 0.00000000)
		(1.55865922 0.57880060 0.00000000)
		(1.57541899 0.55295324 0.00000000)
		(1.59217877 0.52692667 0.00000000)
		(1.60893855 0.50080899 0.00000000)
		(1.62569832 0.47468857 0.00000000)
		(1.64245810 0.44865380 0.00000000)
		(1.65921788 0.42279280 0.00000000)
		(1.67597765 0.39719307 0.00000000)
		(1.69273743 0.37194125 0.00000000)
		(1.70949721 0.34712280 0.00000000)
		(1.72625698 0.32282169 0.00000000)
		(1.74301676 0.29912018 0.00000000)
		(1.75977654 0.27609846 0.00000000)
		(1.77653631 0.25383445 0.00000000)
		(1.79329609 0.23240349 0.00000000)
		(1.81005587 0.21187810 0.00000000)
		(1.82681564 0.19232775 0.00000000)
		(1.84357542 0.17381859 0.00000000)
		(1.86033520 0.15641326 0.00000000)
		(1.87709497 0.14017066 0.00000000)
		(1.89385475 0.12514576 0.00000000)
		(1.91061453 0.11138940 0.00000000)
		(1.92737430 0.09894814 0.00000000)
		(1.94413408 0.08786409 0.00000000)
		(1.96089385 0.07817474 0.00000000)
		(1.97765363 0.06991289 0.00000000)
		(1.99441341 0.06310650 0.00000000)
		(2.01117318 0.05777860 0.00000000)
		(2.02793296 0.05394722 0.00000000)
		(2.04469274 0.05162533 0.00000000)
		(2.06145251 0.05082078 0.00000000)
		(2.07821229 0.05153631 0.00000000)
		(2.09497207 0.05376947 0.00000000)
		(2.11173184 0.05751273 0.00000000)
		(2.12849162 0.06275341 0.00000000)
		(2.14525140 0.06947378 0.00000000)
		(2.16201117 0.07765109 0.00000000)
		(2.17877095 0.08725767 0.00000000)
		(2.19553073 0.09826101 0.00000000)
		(2.21229050 0.11062388 0.00000000)
		(2.22905028 0.12430443 0.00000000)
		(2.24581006 0.13925638 0.00000000)
		(2.26256983 0.15542912 0.00000000)
		(2.27932961 0.17276792 0.00000000)
		(2.29608939 0.19121411 0.00000000)
		(2.31284916 0.21070526 0.00000000)
		(2.32960894 0.23117541 0.00000000)
		(2.34636872 0.25255530 0.00000000)
		(2.36312849 0.27477256 0.00000000)
		(2.37988827 0.29775201 0.00000000)
		(2.39664804 0.32141589 0.00000000)
		(2.41340782 0.34568412 0.00000000)
		(2.43016760 0.37047457 0.00000000)
		(2.44692737 0.39570334 0.00000000)
		(2.46368715 0.42128507 0.00000000)
		(2.48044693 0.44713317 0.00000000)
		(2.49720670 0.47316018 0.00000000)
		(2.51396648 0.49927802 0.00000000)