/*--------------------------------*- C++ -*----------------------------------*\\
/*--------------------------------*- C++ -*----------------------------------*\\
| =========                 |                                                 |
| \\\\      /  F ield         | OpenFOAM: The Open Source CFD Toolbox           |
|  \\\\    /   O peration     | Version:  v2012                                 |
|   \\\\  /    A nd           | Website:  www.openfoam.com                      |
|    \\\\/     M anipulation  |                                                 |
\\*---------------------------------------------------------------------------*/
FoamFile
{
    version     2.0;
    format      ascii;
    class       dictionary;
    object      blockMeshDict;
}
// * * * * * * * * * * * * * * * * * * * * * * * * * * * * * * * * * * * * * //

scale   0.01;

xmin -1;
xmax 5;
ymin 0;
ymax 0.5;
zmin 0;
zmax 0.1;

vertices
(
    (-1.00000000 -0.22528601 0.00000000)
    (4.00000000 -0.22248891 0.00000000)
    (4.00000000 0.27751109 0.00000000)
    (-1.00000000 0.27471399 0.00000000)
    (-1.00000000 -0.22528601 0.10000000)
    (4.00000000 -0.22248891 0.10000000)
    (4.00000000 0.27751109 0.10000000)
    (-1.00000000 0.27471399 0.10000000)
);

blocks
(
    hex (0 1 2 3 4 5 6 7) (200 20 1) simpleGrading (1 1 1)
);

edges
(
	polyLine 0 1
	(
		(-1.00000000 -0.22528601 0.00000000)
		(-0.98000000 -0.22528601 0.00000000)
		(-0.96000000 -0.22528601 0.00000000)
		(-0.94000000 -0.22528601 0.00000000)
		(-0.92000000 -0.22528601 0.00000000)
		(-0.90000000 -0.22528601 0.00000000)
		(-0.88000000 -0.22528601 0.00000000)
		(-0.86000000 -0.22528601 0.00000000)
		(-0.84000000 -0.22528601 0.00000000)
		(-0.82000000 -0.22528601 0.00000000)
		(-0.80000000 -0.22528601 0.00000000)
		(-0.78000000 -0.22528601 0.00000000)
		(-0.76000000 -0.22528601 0.00000000)
		(-0.74000000 -0.22528601 0.00000000)
		(-0.72000000 -0.22528601 0.00000000)
		(-0.70000000 -0.22528601 0.00000000)
		(-0.68000000 -0.22528601 0.00000000)
		(-0.66000000 -0.22528601 0.00000000)
		(-0.64000000 -0.22528601 0.00000000)
		(-0.62000000 -0.22528601 0.00000000)
		(-0.60000000 -0.22528601 0.00000000)
		(-0.58000000 -0.22528601 0.00000000)
		(-0.56000000 -0.22528601 0.00000000)
		(-0.54000000 -0.22528601 0.00000000)
		(-0.52000000 -0.22528601 0.00000000)
		(-0.50000000 -0.22528601 0.00000000)
		(-0.48000000 -0.22528601 0.00000000)
		(-0.46000000 -0.22528601 0.00000000)
		(-0.44000000 -0.22528601 0.00000000)
		(-0.42000000 -0.22528601 0.00000000)
		(-0.40000000 -0.22528601 0.00000000)
		(-0.38000000 -0.22528601 0.00000000)
		(-0.36000000 -0.22528601 0.00000000)
		(-0.34000000 -0.22528601 0.00000000)
		(-0.32000000 -0.22528601 0.00000000)
		(-0.30000000 -0.22528601 0.00000000)
		(-0.28000000 -0.22528601 0.00000000)
		(-0.26000000 -0.22528601 0.00000000)
		(-0.24000000 -0.22528601 0.00000000)
		(-0.22000000 -0.22528601 0.00000000)
		(-0.20000000 -0.22528601 0.00000000)
		(-0.18000000 -0.22528601 0.00000000)
		(-0.16000000 -0.22528601 0.00000000)
		(-0.14000000 -0.22528601 0.00000000)
		(-0.12000000 -0.22528601 0.00000000)
		(-0.10000000 -0.22528601 0.00000000)
		(-0.08162011 -0.22477472 0.00000000)
		(-0.06324022 -0.22324083 0.00000000)
		(-0.04486034 -0.22068434 0.00000000)
		(-0.02648045 -0.21710526 0.00000000)
		(-0.00810056 -0.21250359 0.00000000)
		(0.01027933 -0.20687932 0.00000000)
		(0.02865922 -0.20023246 0.00000000)
		(0.04703911 -0.19256300 0.00000000)
		(0.06541899 -0.18387095 0.00000000)
		(0.08379888 -0.17415631 0.00000000)
		(0.10055866 -0.16111924 0.00000000)
		(0.11731844 -0.14728525 0.00000000)
		(0.13407821 -0.13272275 0.00000000)
		(0.15083799 -0.11750378 0.00000000)
		(0.16759777 -0.10170362 0.00000000)
		(0.18435754 -0.08540041 0.00000000)
		(0.20111732 -0.06867479 0.00000000)
		(0.21787709 -0.05160949 0.00000000)
		(0.23463687 -0.03428892 0.00000000)
		(0.25139665 -0.01679875 0.00000000)
		(0.26815642 0.00077451 0.00000000)
		(0.28491620 0.01834394 0.00000000)
		(0.30167598 0.03582263 0.00000000)
		(0.31843575 0.05312414 0.00000000)
		(0.33519553 0.07016289 0.00000000)
		(0.35195531 0.08685460 0.00000000)
		(0.36871508 0.10311670 0.00000000)
		(0.38547486 0.11886878 0.00000000)
		(0.40223464 0.13403290 0.00000000)
		(0.41899441 0.14853407 0.00000000)
		(0.43575419 0.16230056 0.00000000)
		(0.45251397 0.17526428 0.00000000)
		(0.46927374 0.18736111 0.00000000)
		(0.48603352 0.19853122 0.00000000)
		(0.50279330 0.20871935 0.00000000)
		(0.51955307 0.21787511 0.00000000)
		(0.53631285 0.22595322 0.00000000)
		(0.55307263 0.23291372 0.00000000)
		(0.56983240 0.23872218 0.00000000)
		(0.58659218 0.24334987 0.00000000)
		(0.60335196 0.24677391 0.00000000)
		(0.62011173 0.24897736 0.00000000)
		(0.63687151 0.24994932 0.00000000)
		(0.65363128 0.24968497 0.00000000)
		(0.67039106 0.24818564 0.00000000)
		(0.68715084 0.24545873 0.00000000)
		(0.70391061 0.24151773 0.00000000)
		(0.72067039 0.23638214 0.00000000)
		(0.73743017 0.23007736 0.00000000)
		(0.75418994 0.22263456 0.00000000)
		(0.77094972 0.21409058 0.00000000)
		(0.78770950 0.20448766 0.00000000)
		(0.80446927 0.19387330 0.00000000)
		(0.82122905 0.18230001 0.00000000)
		(0.83798883 0.16982502 0.00000000)
		(0.85474860 0.15651005 0.00000000)
		(0.87150838 0.14242095 0.00000000)
		(0.88826816 0.12762740 0.00000000)
		(0.90502793 0.11220259 0.00000000)
		(0.92178771 0.09622280 0.00000000)
		(0.93854749 0.07976707 0.00000000)
		(0.95530726 0.06291680 0.00000000)
		(0.97206704 0.04575533 0.00000000)
		(0.98882682 0.02836754 0.00000000)
		(1.00558659 0.01083945 0.00000000)
		(1.02234637 -0.00674226 0.00000000)
		(1.03910615 -0.02429063 0.00000000)
		(1.05586592 -0.04171884 0.00000000)
		(1.07262570 -0.05894071 0.00000000)
		(1.08938547 -0.07587104 0.00000000)
		(1.10614525 -0.09242610 0.00000000)
		(1.12290503 -0.10852401 0.00000000)
		(1.13966480 -0.12408513 0.00000000)
		(1.15642458 -0.13903250 0.00000000)
		(1.17318436 -0.15329219 0.00000000)
		(1.18994413 -0.16679367 0.00000000)
		(1.20670391 -0.17947015 0.00000000)
		(1.22346369 -0.19125894 0.00000000)
		(1.24022346 -0.20210172 0.00000000)
		(1.25698324 -0.21194487 0.00000000)
		(1.27374302 -0.22073970 0.00000000)
		(1.29050279 -0.22844270 0.00000000)
		(1.30726257 -0.23501578 0.00000000)
		(1.32402235 -0.24042643 0.00000000)
		(1.34078212 -0.24464788 0.00000000)
		(1.35754190 -0.24765926 0.00000000)
		(1.37430168 -0.24944566 0.00000000)
		(1.39106145 -0.24999825 0.00000000)
		(1.40782123 -0.24931431 0.00000000)
		(1.42458101 -0.24739721 0.00000000)
		(1.44134078 -0.24425643 0.00000000)
		(1.45810056 -0.23990751 0.00000000)
		(1.47486034 -0.23437196 0.00000000)
		(1.49162011 -0.22767716 0.00000000)
		(1.50837989 -0.21985622 0.00000000)
		(1.52513966 -0.21094784 0.00000000)
		(1.54189944 -0.20099606 0.00000000)
		(1.55865922 -0.19005012 0.00000000)
		(1.57541899 -0.17816415 0.00000000)
		(1.59217877 -0.16539694 0.00000000)
		(1.60893855 -0.15181165 0.00000000)
		(1.62569832 -0.13747547 0.00000000)
		(1.64245810 -0.12245931 0.00000000)
		(1.65921788 -0.10683744 0.00000000)
		(1.67597765 -0.09068714 0.00000000)
		(1.69273743 -0.07408827 0.00000000)
		(1.70949721 -0.05712295 0.00000000)
		(1.72625698 -0.03987509 0.00000000)
		(1.74301676 -0.02243000 0.00000000)
		(1.75977654 -0.00487397 0.00000000)
		(1.77653631 0.01270618 0.00000000)
		(1.79329609 0.03022347 0.00000000)
		(1.81005587 0.04759127 0.00000000)
		(1.82681564 0.06472368 0.00000000)
		(1.84357542 0.08153595 0.00000000)
		(1.86033520 0.09794493 0.00000000)
		(1.87709497 0.11386946 0.00000000)
		(1.89385475 0.12923076 0.00000000)
		(1.91061453 0.14395286 0.00000000)
		(1.92737430 0.15796294 0.00000000)
		(1.94413408 0.17119171 0.00000000)
		(1.96089385 0.18357373 0.00000000)
		(1.97765363 0.19504775 0.00000000)
		(1.99441341 0.20555704 0.00000000)
		(2.01117318 0.21504959 0.00000000)
		(2.02793296 0.22347847 0.00000000)
		(2.04469274 0.23080198 0.00000000)
		(2.06145251 0.23698390 0.00000000)
		(2.07821229 0.24199365 0.00000000)
		(2.09497207 0.24580645 0.00000000)
		(2.11173184 0.24840344 0.00000000)
		(2.12849162 0.24977178 0.00000000)
		(2.14525140 0.24990470 0.00000000)
		(2.16201117 0.24880155 0.00000000)
		(2.17877095 0.24646777 0.00000000)
		(2.19553073 0.24291491 0.00000000)
		(2.21229050 0.23816055 0.00000000)
		(2.22905028 0.23222819 0.00000000)
		(2.24581006 0.22514720 0.00000000)
		(2.26256983 0.21695258 0.00000000)
		(2.27932961 0.20768486 0.00000000)
		(2.29608939 0.19738990 0.00000000)
		(2.31284916 0.18611861 0.00000000)
		(2.32960894 0.17392674 0.00000000)
		(2.34636872 0.16087460 0.00000000)
		(2.36312849 0.14702673 0.00000000)
		(2.37988827 0.13245165 0.00000000)
		(2.39664804 0.11722143 0.00000000)
		(2.41340782 0.10141141 0.00000000)
		(2.43016760 0.08509979 0.00000000)
		(2.44692737 0.06836725 0.00000000)
		(2.46368715 0.05129655 0.00000000)
		(2.48044693 0.03397213 0.00000000)
		(2.49720670 0.01647967 0.00000000)
		(2.51396648 -0.00109429 0.00000000)
		(2.53072626 -0.01866285 0.00000000)
		(2.54748603 -0.03613909 0.00000000)
		(2.56424581 -0.05343658 0.00000000)
		(2.58100559 -0.07046976 0.00000000)
		(2.59776536 -0.08715439 0.00000000)
		(2.61452514 -0.10340794 0.00000000)
		(2.63128492 -0.11915000 0.00000000)
		(2.64804469 -0.13430273 0.00000000)
		(2.66480447 -0.14879117 0.00000000)
		(2.68156425 -0.16254366 0.00000000)
		(2.69832402 -0.17549218 0.00000000)
		(2.71508380 -0.18757268 0.00000000)
		(2.73184358 -0.19872540 0.00000000)
		(2.74860335 -0.20889520 0.00000000)
		(2.76536313 -0.21803175 0.00000000)
		(2.78212291 -0.22608988 0.00000000)
		(2.79888268 -0.23302972 0.00000000)
		(2.81564246 -0.23881695 0.00000000)
		(2.83240223 -0.24342294 0.00000000)
		(2.84916201 -0.24682492 0.00000000)
		(2.86592179 -0.24900605 0.00000000)
		(2.88268156 -0.24995555 0.00000000)
		(2.89944134 -0.24966872 0.00000000)
		(2.91620112 -0.24814698 0.00000000)
		(2.93296089 -0.24539785 0.00000000)
		(2.95166480 -0.24104515 0.00000000)
		(2.97036872 -0.23715063 0.00000000)
		(2.98907263 -0.23371429 0.00000000)
		(3.00777654 -0.23073613 0.00000000)
		(3.02648045 -0.22821615 0.00000000)
		(3.04518436 -0.22615434 0.00000000)
		(3.06388827 -0.22455071 0.00000000)
		(3.08259218 -0.22340527 0.00000000)
		(3.10129609 -0.22271800 0.00000000)
		(3.12000000 -0.22248891 0.00000000)
		(3.14000000 -0.22248891 0.00000000)
		(3.16000000 -0.22248891 0.00000000)
		(3.18000000 -0.22248891 0.00000000)
		(3.20000000 -0.22248891 0.00000000)
		(3.22000000 -0.22248891 0.00000000)
		(3.24000000 -0.22248891 0.00000000)
		(3.26000000 -0.22248891 0.00000000)
		(3.28000000 -0.22248891 0.00000000)
		(3.30000000 -0.22248891 0.00000000)
		(3.32000000 -0.22248891 0.00000000)
		(3.34000000 -0.22248891 0.00000000)
		(3.36000000 -0.22248891 0.00000000)
		(3.38000000 -0.22248891 0.00000000)
		(3.40000000 -0.22248891 0.00000000)
		(3.42000000 -0.22248891 0.00000000)
		(3.44000000 -0.22248891 0.00000000)
		(3.46000000 -0.22248891 0.00000000)
		(3.48000000 -0.22248891 0.00000000)
		(3.50000000 -0.22248891 0.00000000)
		(3.52000000 -0.22248891 0.00000000)
		(3.54000000 -0.22248891 0.00000000)
		(3.56000000 -0.22248891 0.00000000)
		(3.58000000 -0.22248891 0.00000000)
		(3.60000000 -0.22248891 0.00000000)
		(3.62000000 -0.22248891 0.00000000)
		(3.64000000 -0.22248891 0.00000000)
		(3.66000000 -0.22248891 0.00000000)
		(3.68000000 -0.22248891 0.00000000)
		(3.70000000 -0.22248891 0.00000000)
		(3.72000000 -0.22248891 0.00000000)
		(3.74000000 -0.22248891 0.00000000)
		(3.76000000 -0.22248891 0.00000000)
		(3.78000000 -0.22248891 0.00000000)
		(3.80000000 -0.22248891 0.00000000)
		(3.82000000 -0.22248891 0.00000000)
		(3.84000000 -0.22248891 0.00000000)
		(3.86000000 -0.22248891 0.00000000)
		(3.88000000 -0.22248891 0.00000000)
		(3.90000000 -0.22248891 0.00000000)
		(3.92000000 -0.22248891 0.00000000)
		(3.94000000 -0.22248891 0.00000000)
		(3.96000000 -0.22248891 0.00000000)
		(3.98000000 -0.22248891 0.00000000)
		(4.00000000 -0.22248891 0.00000000)
	)
	polyLine 4 5
	(
		(-1.00000000 -0.22528601 0.10000000)
		(-0.98000000 -0.22528601 0.10000000)
		(-0.96000000 -0.22528601 0.10000000)
		(-0.94000000 -0.22528601 0.10000000)
		(-0.92000000 -0.22528601 0.10000000)
		(-0.90000000 -0.22528601 0.10000000)
		(-0.88000000 -0.22528601 0.10000000)
		(-0.86000000 -0.22528601 0.10000000)
		(-0.84000000 -0.22528601 0.10000000)
		(-0.82000000 -0.22528601 0.10000000)
		(-0.80000000 -0.22528601 0.10000000)
		(-0.78000000 -0.22528601 0.10000000)
		(-0.76000000 -0.22528601 0.10000000)
		(-0.74000000 -0.22528601 0.10000000)
		(-0.72000000 -0.22528601 0.10000000)
		(-0.70000000 -0.22528601 0.10000000)
		(-0.68000000 -0.22528601 0.10000000)
		(-0.66000000 -0.22528601 0.10000000)
		(-0.64000000 -0.22528601 0.10000000)
		(-0.62000000 -0.22528601 0.10000000)
		(-0.60000000 -0.22528601 0.10000000)
		(-0.58000000 -0.22528601 0.10000000)
		(-0.56000000 -0.22528601 0.10000000)
		(-0.54000000 -0.22528601 0.10000000)
		(-0.52000000 -0.22528601 0.10000000)
		(-0.50000000 -0.22528601 0.10000000)
		(-0.48000000 -0.22528601 0.10000000)
		(-0.46000000 -0.22528601 0.10000000)
		(-0.44000000 -0.22528601 0.10000000)
		(-0.42000000 -0.22528601 0.10000000)
		(-0.40000000 -0.22528601 0.10000000)
		(-0.38000000 -0.22528601 0.10000000)
		(-0.36000000 -0.22528601 0.10000000)
		(-0.34000000 -0.22528601 0.10000000)
		(-0.32000000 -0.22528601 0.10000000)
		(-0.30000000 -0.22528601 0.10000000)
		(-0.28000000 -0.22528601 0.10000000)
		(-0.26000000 -0.22528601 0.10000000)
		(-0.24000000 -0.22528601 0.10000000)
		(-0.22000000 -0.22528601 0.10000000)
		(-0.20000000 -0.22528601 0.10000000)
		(-0.18000000 -0.22528601 0.10000000)
		(-0.16000000 -0.22528601 0.10000000)
		(-0.14000000 -0.22528601 0.10000000)
		(-0.12000000 -0.22528601 0.10000000)
		(-0.10000000 -0.22528601 0.10000000)
		(-0.08162011 -0.22477472 0.10000000)
		(-0.06324022 -0.22324083 0.10000000)
		(-0.04486034 -0.22068434 0.10000000)
		(-0.02648045 -0.21710526 0.10000000)
		(-0.00810056 -0.21250359 0.10000000)
		(0.01027933 -0.20687932 0.10000000)
		(0.02865922 -0.20023246 0.10000000)
		(0.04703911 -0.19256300 0.10000000)
		(0.06541899 -0.18387095 0.10000000)
		(0.08379888 -0.17415631 0.10000000)
		(0.10055866 -0.16111924 0.10000000)
		(0.11731844 -0.14728525 0.10000000)
		(0.13407821 -0.13272275 0.10000000)
		(0.15083799 -0.11750378 0.10000000)
		(0.16759777 -0.10170362 0.10000000)
		(0.18435754 -0.08540041 0.10000000)
		(0.20111732 -0.06867479 0.10000000)
		(0.21787709 -0.05160949 0.10000000)
		(0.23463687 -0.03428892 0.10000000)
		(0.25139665 -0.01679875 0.10000000)
		(0.26815642 0.00077451 0.10000000)
		(0.28491620 0.01834394 0.10000000)
		(0.30167598 0.03582263 0.10000000)
		(0.31843575 0.05312414 0.10000000)
		(0.33519553 0.07016289 0.10000000)
		(0.35195531 0.08685460 0.10000000)
		(0.36871508 0.10311670 0.10000000)
		(0.38547486 0.11886878 0.10000000)
		(0.40223464 0.13403290 0.10000000)
		(0.41899441 0.14853407 0.10000000)
		(0.43575419 0.16230056 0.10000000)
		(0.45251397 0.17526428 0.10000000)
		(0.46927374 0.18736111 0.10000000)
		(0.48603352 0.19853122 0.10000000)
		(0.50279330 0.20871935 0.10000000)
		(0.51955307 0.21787511 0.10000000)
		(0.53631285 0.22595322 0.10000000)
		(0.55307263 0.23291372 0.10000000)
		(0.56983240 0.23872218 0.10000000)
		(0.58659218 0.24334987 0.10000000)
		(0.60335196 0.24677391 0.10000000)
		(0.62011173 0.24897736 0.10000000)
		(0.63687151 0.24994932 0.10000000)
		(0.65363128 0.24968497 0.10000000)
		(0.67039106 0.24818564 0.10000000)
		(0.68715084 0.24545873 0.10000000)
		(0.70391061 0.24151773 0.10000000)
		(0.72067039 0.23638214 0.10000000)
		(0.73743017 0.23007736 0.10000000)
		(0.75418994 0.22263456 0.10000000)
		(0.77094972 0.21409058 0.10000000)
		(0.78770950 0.20448766 0.10000000)
		(0.80446927 0.19387330 0.10000000)
		(0.82122905 0.18230001 0.10000000)
		(0.83798883 0.16982502 0.10000000)
		(0.85474860 0.15651005 0.10000000)
		(0.87150838 0.14242095 0.10000000)
		(0.88826816 0.12762740 0.10000000)
		(0.90502793 0.11220259 0.10000000)
		(0.92178771 0.09622280 0.10000000)
		(0.93854749 0.07976707 0.10000000)
		(0.95530726 0.06291680 0.10000000)
		(0.97206704 0.04575533 0.10000000)
		(0.98882682 0.02836754 0.10000000)
		(1.00558659 0.01083945 0.10000000)
		(1.02234637 -0.00674226 0.10000000)
		(1.03910615 -0.02429063 0.10000000)
		(1.05586592 -0.04171884 0.10000000)
		(1.07262570 -0.05894071 0.10000000)
		(1.08938547 -0.07587104 0.10000000)
		(1.10614525 -0.09242610 0.10000000)
		(1.12290503 -0.10852401 0.10000000)
		(1.13966480 -0.12408513 0.10000000)
		(1.15642458 -0.13903250 0.10000000)
		(1.17318436 -0.15329219 0.10000000)
		(1.18994413 -0.16679367 0.10000000)
		(1.20670391 -0.17947015 0.10000000)
		(1.22346369 -0.19125894 0.10000000)
		(1.24022346 -0.20210172 0.10000000)
		(1.25698324 -0.21194487 0.10000000)
		(1.27374302 -0.22073970 0.10000000)
		(1.29050279 -0.22844270 0.10000000)
		(1.30726257 -0.23501578 0.10000000)
		(1.32402235 -0.24042643 0.10000000)
		(1.34078212 -0.24464788 0.10000000)
		(1.35754190 -0.24765926 0.10000000)
		(1.37430168 -0.24944566 0.10000000)
		(1.39106145 -0.24999825 0.10000000)
		(1.40782123 -0.24931431 0.10000000)
		(1.42458101 -0.24739721 0.10000000)
		(1.44134078 -0.24425643 0.10000000)
		(1.45810056 -0.23990751 0.10000000)
		(1.47486034 -0.23437196 0.10000000)
		(1.49162011 -0.22767716 0.10000000)
		(1.50837989 -0.21985622 0.10000000)
		(1.52513966 -0.21094784 0.10000000)
		(1.54189944 -0.20099606 0.10000000)
		(1.55865922 -0.19005012 0.10000000)
		(1.57541899 -0.17816415 0.10000000)
		(1.59217877 -0.16539694 0.10000000)
		(1.60893855 -0.15181165 0.10000000)
		(1.62569832 -0.13747547 0.10000000)
		(1.64245810 -0.12245931 0.10000000)
		(1.65921788 -0.10683744 0.10000000)
		(1.67597765 -0.09068714 0.10000000)
		(1.69273743 -0.07408827 0.10000000)
		(1.70949721 -0.05712295 0.10000000)
		(1.72625698 -0.03987509 0.10000000)
		(1.74301676 -0.02243000 0.10000000)
		(1.75977654 -0.00487397 0.10000000)
		(1.77653631 0.01270618 0.10000000)
		(1.79329609 0.03022347 0.10000000)
		(1.81005587 0.04759127 0.10000000)
		(1.82681564 0.06472368 0.10000000)
		(1.84357542 0.08153595 0.10000000)
		(1.86033520 0.09794493 0.10000000)
		(1.87709497 0.11386946 0.10000000)
		(1.89385475 0.12923076 0.10000000)
		(1.91061453 0.14395286 0.10000000)
		(1.92737430 0.15796294 0.10000000)
		(1.94413408 0.17119171 0.10000000)
		(1.96089385 0.18357373 0.10000000)
		(1.97765363 0.19504775 0.10000000)
		(1.99441341 0.20555704 0.10000000)
		(2.01117318 0.21504959 0.10000000)
		(2.02793296 0.22347847 0.10000000)
		(2.04469274 0.23080198 0.10000000)
		(2.06145251 0.23698390 0.10000000)
		(2.07821229 0.24199365 0.10000000)
		(2.09497207 0.24580645 0.10000000)
		(2.11173184 0.24840344 0.10000000)
		(2.12849162 0.24977178 0.10000000)
		(2.14525140 0.24990470 0.10000000)
		(2.16201117 0.24880155 0.10000000)
		(2.17877095 0.24646777 0.10000000)
		(2.19553073 0.24291491 0.10000000)
		(2.21229050 0.23816055 0.10000000)
		(2.22905028 0.23222819 0.10000000)
		(2.24581006 0.22514720 0.10000000)
		(2.26256983 0.21695258 0.10000000)
		(2.27932961 0.20768486 0.10000000)
		(2.29608939 0.19738990 0.10000000)
		(2.31284916 0.18611861 0.10000000)
		(2.32960894 0.17392674 0.10000000)
		(2.34636872 0.16087460 0.10000000)
		(2.36312849 0.14702673 0.10000000)
		(2.37988827 0.13245165 0.10000000)
		(2.39664804 0.11722143 0.10000000)
		(2.41340782 0.10141141 0.10000000)
		(2.43016760 0.08509979 0.10000000)
		(2.44692737 0.06836725 0.10000000)
		(2.46368715 0.05129655 0.10000000)
		(2.48044693 0.03397213 0.10000000)
		(2.49720670 0.01647967 0.10000000)
		(2.51396648 -0.00109429 0.10000000)
		(2.53072626 -0.01866285 0.10000000)
		(2.54748603 -0.03613909 0.10000000)
		(2.56424581 -0.05343658 0.10000000)
		(2.58100559 -0.07046976 0.10000000)
		(2.59776536 -0.08715439 0.10000000)
		(2.61452514 -0.10340794 0.10000000)
		(2.63128492 -0.11915000 0.10000000)
		(2.64804469 -0.13430273 0.10000000)
		(2.66480447 -0.14879117 0.10000000)
		(2.68156425 -0.16254366 0.10000000)
		(2.69832402 -0.17549218 0.10000000)
		(2.71508380 -0.18757268 0.10000000)
		(2.73184358 -0.19872540 0.10000000)
		(2.74860335 -0.20889520 0.10000000)
		(2.76536313 -0.21803175 0.10000000)
		(2.78212291 -0.22608988 0.10000000)
		(2.79888268 -0.23302972 0.10000000)
		(2.81564246 -0.23881695 0.10000000)
		(2.83240223 -0.24342294 0.10000000)
		(2.84916201 -0.24682492 0.10000000)
		(2.86592179 -0.24900605 0.10000000)
		(2.88268156 -0.24995555 0.10000000)
		(2.89944134 -0.24966872 0.10000000)
		(2.91620112 -0.24814698 0.10000000)
		(2.93296089 -0.24539785 0.10000000)
		(2.95166480 -0.24104515 0.10000000)
		(2.97036872 -0.23715063 0.10000000)
		(2.98907263 -0.23371429 0.10000000)
		(3.00777654 -0.23073613 0.10000000)
		(3.02648045 -0.22821615 0.10000000)
		(3.04518436 -0.22615434 0.10000000)
		(3.06388827 -0.22455071 0.10000000)
		(3.08259218 -0.22340527 0.10000000)
		(3.10129609 -0.22271800 0.10000000)
		(3.12000000 -0.22248891 0.10000000)
		(3.14000000 -0.22248891 0.10000000)
		(3.16000000 -0.22248891 0.10000000)
		(3.18000000 -0.22248891 0.10000000)
		(3.20000000 -0.22248891 0.10000000)
		(3.22000000 -0.22248891 0.10000000)
		(3.24000000 -0.22248891 0.10000000)
		(3.26000000 -0.22248891 0.10000000)
		(3.28000000 -0.22248891 0.10000000)
		(3.30000000 -0.22248891 0.10000000)
		(3.32000000 -0.22248891 0.10000000)
		(3.34000000 -0.22248891 0.10000000)
		(3.36000000 -0.22248891 0.10000000)
		(3.38000000 -0.22248891 0.10000000)
		(3.40000000 -0.22248891 0.10000000)
		(3.42000000 -0.22248891 0.10000000)
		(3.44000000 -0.22248891 0.10000000)
		(3.46000000 -0.22248891 0.10000000)
		(3.48000000 -0.22248891 0.10000000)
		(3.50000000 -0.22248891 0.10000000)
		(3.52000000 -0.22248891 0.10000000)
		(3.54000000 -0.22248891 0.10000000)
		(3.56000000 -0.22248891 0.10000000)
		(3.58000000 -0.22248891 0.10000000)
		(3.60000000 -0.22248891 0.10000000)
		(3.62000000 -0.22248891 0.10000000)
		(3.64000000 -0.22248891 0.10000000)
		(3.66000000 -0.22248891 0.10000000)
		(3.68000000 -0.22248891 0.10000000)
		(3.70000000 -0.22248891 0.10000000)
		(3.72000000 -0.22248891 0.10000000)
		(3.74000000 -0.22248891 0.10000000)
		(3.76000000 -0.22248891 0.10000000)
		(3.78000000 -0.22248891 0.10000000)
		(3.80000000 -0.22248891 0.10000000)
		(3.82000000 -0.22248891 0.10000000)
		(3.84000000 -0.22248891 0.10000000)
		(3.86000000 -0.22248891 0.10000000)
		(3.88000000 -0.22248891 0.10000000)
		(3.90000000 -0.22248891 0.10000000)
		(3.92000000 -0.22248891 0.10000000)
		(3.94000000 -0.22248891 0.10000000)
		(3.96000000 -0.22248891 0.10000000)
		(3.98000000 -0.22248891 0.10000000)
		(4.00000000 -0.22248891 0.10000000)
	)
	polyLine 3 2
	(
		(-1.00000000 0.27471399 0.00000000)
		(-0.98000000 0.27222737 0.00000000)
		(-0.96000000 0.26974075 0.00000000)
		(-0.94000000 0.26725414 0.00000000)
		(-0.92000000 0.26476752 0.00000000)
		(-0.90000000 0.26228091 0.00000000)
		(-0.88000000 0.25979429 0.00000000)
		(-0.86000000 0.25730768 0.00000000)
		(-0.84000000 0.25482106 0.00000000)
		(-0.82000000 0.25233445 0.00000000)
		(-0.80000000 0.24984783 0.00000000)
		(-0.78000000 0.24736121 0.00000000)
		(-0.76000000 0.24487460 0.00000000)
		(-0.74000000 0.24238798 0.00000000)
		(-0.72000000 0.23990137 0.00000000)
		(-0.70000000 0.23741475 0.00000000)
		(-0.68000000 0.23492814 0.00000000)
		(-0.66000000 0.23244152 0.00000000)
		(-0.64000000 0.22995491 0.00000000)
		(-0.62000000 0.22746829 0.00000000)
		(-0.60000000 0.22498167 0.00000000)
		(-0.58000000 0.22249506 0.00000000)
		(-0.56000000 0.22000844 0.00000000)
		(-0.54000000 0.21752183 0.00000000)
		(-0.52000000 0.21503521 0.00000000)
		(-0.50000000 0.21254860 0.00000000)
		(-0.48000000 0.21006198 0.00000000)
		(-0.46000000 0.20757537 0.00000000)
		(-0.44000000 0.20508875 0.00000000)
		(-0.42000000 0.20260213 0.00000000)
		(-0.40000000 0.20011552 0.00000000)
		(-0.38000000 0.19762890 0.00000000)
		(-0.36000000 0.19514229 0.00000000)
		(-0.34000000 0.19265567 0.00000000)
		(-0.32000000 0.19016906 0.00000000)
		(-0.30000000 0.18768244 0.00000000)
		(-0.28000000 0.18519583 0.00000000)
		(-0.26000000 0.18270921 0.00000000)
		(-0.24000000 0.18022259 0.00000000)
		(-0.22000000 0.17773598 0.00000000)
		(-0.20000000 0.17524936 0.00000000)
		(-0.18000000 0.17276275 0.00000000)
		(-0.16000000 0.17027613 0.00000000)
		(-0.14000000 0.16778952 0.00000000)
		(-0.12000000 0.16530290 0.00000000)
		(-0.10000000 0.16281628 0.00000000)
		(-0.08162011 0.16055103 0.00000000)
		(-0.06324022 0.16031885 0.00000000)
		(-0.04486034 0.16211977 0.00000000)
		(-0.02648045 0.16595377 0.00000000)
		(-0.00810056 0.17182086 0.00000000)
		(0.01027933 0.17972104 0.00000000)
		(0.02865922 0.18965430 0.00000000)
		(0.04703911 0.20162066 0.00000000)
		(0.06541899 0.21562010 0.00000000)
		(0.08379888 0.23165262 0.00000000)
		(0.10055866 0.25174068 0.00000000)
		(0.11731844 0.27305669 0.00000000)
		(0.13407821 0.29549519 0.00000000)
		(0.15083799 0.31894522 0.00000000)
		(0.16759777 0.34329078 0.00000000)
		(0.18435754 0.36841146 0.00000000)
		(0.20111732 0.39418300 0.00000000)
		(0.21787709 0.42047793 0.00000000)
		(0.23463687 0.44716619 0.00000000)
		(0.25139665 0.47411578 0.00000000)
		(0.26815642 0.50119340 0.00000000)
		(0.28491620 0.52826511 0.00000000)
		(0.30167598 0.55519702 0.00000000)
		(0.31843575 0.58185592 0.00000000)
		(0.33519553 0.60810993 0.00000000)
		(0.35195531 0.63382922 0.00000000)
		(0.36871508 0.65888656 0.00000000)
		(0.38547486 0.68315802 0.00000000)
		(0.40223464 0.70652354 0.00000000)
		(0.41899441 0.72886755 0.00000000)
		(0.43575419 0.75007954 0.00000000)
		(0.45251397 0.77005459 0.00000000)
		(0.46927374 0.78869389 0.00000000)
		(0.48603352 0.80590526 0.00000000)
		(0.50279330 0.82160356 0.00000000)
		(0.51955307 0.83571114 0.00000000)
		(0.53631285 0.84815823 0.00000000)
		(0.55307263 0.85888326 0.00000000)
		(0.56983240 0.86783319 0.00000000)
		(0.58659218 0.87496373 0.00000000)
		(0.60335196 0.88023964 0.00000000)
		(0.62011173 0.88363480 0.00000000)
		(0.63687151 0.88513243 0.00000000)
		(0.65363128 0.88472512 0.00000000)
		(0.67039106 0.88241488 0.00000000)
		(0.68715084 0.87821315 0.00000000)
		(0.70391061 0.87214069 0.00000000)
		(0.72067039 0.86422756 0.00000000)
		(0.73743017 0.85451288 0.00000000)
		(0.75418994 0.84304471 0.00000000)
		(0.77094972 0.82987978 0.00000000)
		(0.78770950 0.81508319 0.00000000)
		(0.80446927 0.79872815 0.00000000)
		(0.82122905 0.78089553 0.00000000)
		(0.83798883 0.76167355 0.00000000)
		(0.85474860 0.74115728 0.00000000)
		(0.87150838 0.71944819 0.00000000)
		(0.88826816 0.69665368 0.00000000)
		(0.90502793 0.67288647 0.00000000)
		(0.92178771 0.64826414 0.00000000)
		(0.93854749 0.62290846 0.00000000)
		(0.95530726 0.59694485 0.00000000)
		(0.97206704 0.57050174 0.00000000)
		(0.98882682 0.54370991 0.00000000)
		(1.00558659 0.51670188 0.00000000)
		(1.02234637 0.48961124 0.00000000)
		(1.03910615 0.46257198 0.00000000)
		(1.05586592 0.43571785 0.00000000)
		(1.07262570 0.40918167 0.00000000)
		(1.08938547 0.38309470 0.00000000)
		(1.10614525 0.35758597 0.00000000)
		(1.12290503 0.33278164 0.00000000)
		(1.13966480 0.30880441 0.00000000)
		(1.15642458 0.28577287 0.00000000)
		(1.17318436 0.26380094 0.00000000)
		(1.18994413 0.24299729 0.00000000)
		(1.20670391 0.22346483 0.00000000)
		(1.22346369 0.20530017 0.00000000)
		(1.24022346 0.18859316 0.00000000)
		(1.25698324 0.17342642 0.00000000)
		(1.27374302 0.15987498 0.00000000)
		(1.29050279 0.14800587 0.00000000)
		(1.30726257 0.13787779 0.00000000)
		(1.32402235 0.12954083 0.00000000)
		(1.34078212 0.12303624 0.00000000)
		(1.35754190 0.11839619 0.00000000)
		(1.37430168 0.11564362 0.00000000)
		(1.39106145 0.11479216 0.00000000)
		(1.40782123 0.11584601 0.00000000)
		(1.42458101 0.11879997 0.00000000)
		(1.44134078 0.12363941 0.00000000)
		(1.45810056 0.13034041 0.00000000)
		(1.47486034 0.13886982 0.00000000)
		(1.49162011 0.14918544 0.00000000)
		(1.50837989 0.16123627 0.00000000)
		(1.52513966 0.17496269 0.00000000)
		(1.54189944 0.19029681 0.00000000)
		(1.55865922 0.20716278 0.00000000)
		(1.57541899 0.22547718 0.00000000)
		(1.59217877 0.24514942 0.00000000)
		(1.60893855 0.26608221 0.00000000)
		(1.62569832 0.28817200 0.00000000)
		(1.64245810 0.31130953 0.00000000)
		(1.65921788 0.33538037 0.00000000)
		(1.67597765 0.36026544 0.00000000)
		(1.69273743 0.38584167 0.00000000)
		(1.70949721 0.41198255 0.00000000)
		(1.72625698 0.43855878 0.00000000)
		(1.74301676 0.46543891 0.00000000)
		(1.75977654 0.49248999 0.00000000)
		(1.77653631 0.51957821 0.00000000)
		(1.79329609 0.54656960 0.00000000)
		(1.81005587 0.57333064 0.00000000)
		(1.82681564 0.59972897 0.00000000)
		(1.84357542 0.62563403 0.00000000)
		(1.86033520 0.65091768 0.00000000)
		(1.87709497 0.67545485 0.00000000)
		(1.89385475 0.69912419 0.00000000)
		(1.91061453 0.72180863 0.00000000)
		(1.92737430 0.74339595 0.00000000)
		(1.94413408 0.76377939 0.00000000)
		(1.96089385 0.78285813 0.00000000)
		(1.97765363 0.80053779 0.00000000)
		(1.99441341 0.81673094 0.00000000)
		(2.01117318 0.83135747 0.00000000)
		(2.02793296 0.84434504 0.00000000)
		(2.04469274 0.85562941 0.00000000)
		(2.06145251 0.86515477 0.00000000)
		(2.07821229 0.87287401 0.00000000)
		(2.09497207 0.87874893 0.00000000)
		(2.11173184 0.88275049 0.00000000)
		(2.12849162 0.88485888 0.00000000)
		(2.14525140 0.88506369 0.00000000)
		(2.16201117 0.88336390 0.00000000)
		(2.17877095 0.87976791 0.00000000)
		(2.19553073 0.87429352 0.00000000)
		(2.21229050 0.86696780 0.00000000)
		(2.22905028 0.85782698 0.00000000)
		(2.24581006 0.84691628 0.00000000)
		(2.26256983 0.83428966 0.00000000)
		(2.27932961 0.82000959 0.00000000)
		(2.29608939 0.80414668 0.00000000)
		(2.31284916 0.78677940 0.00000000)
		(2.32960894 0.76799365 0.00000000)
		(2.34636872 0.74788235 0.00000000)
		(2.36312849 0.72654498 0.00000000)
		(2.37988827 0.70408707 0.00000000)
		(2.39664804 0.68061971 0.00000000)
		(2.41340782 0.65625897 0.00000000)
		(2.43016760 0.63112534 0.00000000)
		(2.44692737 0.60534313 0.00000000)
		(2.46368715 0.57903988 0.00000000)