/*--------------------------------*- C++ -*----------------------------------*\\
/*--------------------------------*- C++ -*----------------------------------*\\
| =========                 |                                                 |
| \\\\      /  F ield         | OpenFOAM: The Open Source CFD Toolbox           |
|  \\\\    /   O peration     | Version:  v2012                                 |
|   \\\\  /    A nd           | Website:  www.openfoam.com                      |
|    \\\\/     M anipulation  |                                                 |
\\*---------------------------------------------------------------------------*/
FoamFile
{
    version     2.0;
    format      ascii;
    class       dictionary;
    object      blockMeshDict;
}
// * * * * * * * * * * * * * * * * * * * * * * * * * * * * * * * * * * * * * //

scale   0.01;

xmin -1;
xmax 5;
ymin 0;
ymax 0.5;
zmin 0;
zmax 0.1;

vertices
(
    (-1.00000000 -0.18707977 0.00000000)
    (4.00000000 0.22141825 0.00000000)
    (4.00000000 0.72141825 0.00000000)
    (-1.00000000 0.31292023 0.00000000)
    (-1.00000000 -0.18707977 0.10000000)
    (4.00000000 0.22141825 0.10000000)
    (4.00000000 0.72141825 0.10000000)
    (-1.00000000 0.31292023 0.10000000)
);

blocks
(
    hex (0 1 2 3 4 5 6 7) (200 20 1) simpleGrading (1 1 1)
);

edges
(
	polyLine 0 1
	(
		(-1.00000000 -0.18707977 0.00000000)
		(-0.98000000 -0.18707977 0.00000000)
		(-0.96000000 -0.18707977 0.00000000)
		(-0.94000000 -0.18707977 0.00000000)
		(-0.92000000 -0.18707977 0.00000000)
		(-0.90000000 -0.18707977 0.00000000)
		(-0.88000000 -0.18707977 0.00000000)
		(-0.86000000 -0.18707977 0.00000000)
		(-0.84000000 -0.18707977 0.00000000)
		(-0.82000000 -0.18707977 0.00000000)
		(-0.80000000 -0.18707977 0.00000000)
		(-0.78000000 -0.18707977 0.00000000)
		(-0.76000000 -0.18707977 0.00000000)
		(-0.74000000 -0.18707977 0.00000000)
		(-0.72000000 -0.18707977 0.00000000)
		(-0.70000000 -0.18707977 0.00000000)
		(-0.68000000 -0.18707977 0.00000000)
		(-0.66000000 -0.18707977 0.00000000)
		(-0.64000000 -0.18707977 0.00000000)
		(-0.62000000 -0.18707977 0.00000000)
		(-0.60000000 -0.18707977 0.00000000)
		(-0.58000000 -0.18707977 0.00000000)
		(-0.56000000 -0.18707977 0.00000000)
		(-0.54000000 -0.18707977 0.00000000)
		(-0.52000000 -0.18707977 0.00000000)
		(-0.50000000 -0.18707977 0.00000000)
		(-0.48000000 -0.18707977 0.00000000)
		(-0.46000000 -0.18707977 0.00000000)
		(-0.44000000 -0.18707977 0.00000000)
		(-0.42000000 -0.18707977 0.00000000)
		(-0.40000000 -0.18707977 0.00000000)
		(-0.38000000 -0.18707977 0.00000000)
		(-0.36000000 -0.18707977 0.00000000)
		(-0.34000000 -0.18707977 0.00000000)
		(-0.32000000 -0.18707977 0.00000000)
		(-0.30000000 -0.18707977 0.00000000)
		(-0.28000000 -0.18707977 0.00000000)
		(-0.26000000 -0.18707977 0.00000000)
		(-0.24000000 -0.18707977 0.00000000)
		(-0.22000000 -0.18707977 0.00000000)
		(-0.20000000 -0.18707977 0.00000000)
		(-0.18000000 -0.18707977 0.00000000)
		(-0.16000000 -0.18707977 0.00000000)
		(-0.14000000 -0.18707977 0.00000000)
		(-0.12000000 -0.18707977 0.00000000)
		(-0.10000000 -0.18707977 0.00000000)
		(-0.08162011 -0.18748319 0.00000000)
		(-0.06324022 -0.18869346 0.00000000)
		(-0.04486034 -0.19071058 0.00000000)
		(-0.02648045 -0.19353454 0.00000000)
		(-0.00810056 -0.19716535 0.00000000)
		(0.01027933 -0.20160300 0.00000000)
		(0.02865922 -0.20684750 0.00000000)
		(0.04703911 -0.21289885 0.00000000)
		(0.06541899 -0.21975704 0.00000000)
		(0.08379888 -0.22742208 0.00000000)
		(0.10055866 -0.23318459 0.00000000)
		(0.11731844 -0.23812454 0.00000000)
		(0.13407821 -0.24222450 0.00000000)
		(0.15083799 -0.24547001 0.00000000)
		(0.16759777 -0.24784961 0.00000000)
		(0.18435754 -0.24935492 0.00000000)
		(0.20111732 -0.24998062 0.00000000)
		(0.21787709 -0.24972451 0.00000000)
		(0.23463687 -0.24858749 0.00000000)
		(0.25139665 -0.24657357 0.00000000)
		(0.26815642 -0.24368986 0.00000000)
		(0.28491620 -0.23994653 0.00000000)
		(0.30167598 -0.23535677 0.00000000)
		(0.31843575 -0.22993680 0.00000000)
		(0.33519553 -0.22370571 0.00000000)
		(0.35195531 -0.21668550 0.00000000)
		(0.36871508 -0.20890092 0.00000000)
		(0.38547486 -0.20037944 0.00000000)
		(0.40223464 -0.19115111 0.00000000)
		(0.41899441 -0.18124850 0.00000000)
		(0.43575419 -0.17070653 0.00000000)
		(0.45251397 -0.15956238 0.00000000)
		(0.46927374 -0.14785538 0.00000000)
		(0.48603352 -0.13562681 0.00000000)
		(0.50279330 -0.12291982 0.00000000)
		(0.51955307 -0.10977922 0.00000000)
		(0.53631285 -0.09625137 0.00000000)
		(0.55307263 -0.08238400 0.00000000)
		(0.56983240 -0.06822601 0.00000000)
		(0.58659218 -0.05382735 0.00000000)
		(0.60335196 -0.03923882 0.00000000)
		(0.62011173 -0.02451187 0.00000000)
		(0.63687151 -0.00969845 0.00000000)
		(0.65363128 0.00514917 0.00000000)
		(0.67039106 0.01997864 0.00000000)
		(0.68715084 0.03473762 0.00000000)
		(0.70391061 0.04937408 0.00000000)
		(0.72067039 0.06383636 0.00000000)
		(0.73743017 0.07807346 0.00000000)
		(0.75418994 0.09203515 0.00000000)
		(0.77094972 0.10567218 0.00000000)
		(0.78770950 0.11893646 0.00000000)
		(0.80446927 0.13178118 0.00000000)
		(0.82122905 0.14416104 0.00000000)
		(0.83798883 0.15603237 0.00000000)
		(0.85474860 0.16735329 0.00000000)
		(0.87150838 0.17808387 0.00000000)
		(0.88826816 0.18818626 0.00000000)
		(0.90502793 0.19762481 0.00000000)
		(0.92178771 0.20636623 0.00000000)
		(0.93854749 0.21437970 0.00000000)
		(0.95530726 0.22163693 0.00000000)
		(0.97206704 0.22811233 0.00000000)
		(0.98882682 0.23378307 0.00000000)
		(1.00558659 0.23862912 0.00000000)
		(1.02234637 0.24263341 0.00000000)
		(1.03910615 0.24578180 0.00000000)
		(1.05586592 0.24806319 0.00000000)
		(1.07262570 0.24946953 0.00000000)
		(1.08938547 0.24999586 0.00000000)
		(1.10614525 0.24964033 0.00000000)
		(1.12290503 0.24840418 0.00000000)
		(1.13966480 0.24629178 0.00000000)
		(1.15642458 0.24331058 0.00000000)
		(1.17318436 0.23947109 0.00000000)
		(1.18994413 0.23478687 0.00000000)
		(1.20670391 0.22927443 0.00000000)
		(1.22346369 0.22295321 0.00000000)
		(1.24022346 0.21584553 0.00000000)
		(1.25698324 0.20797644 0.00000000)
		(1.27374302 0.19937371 0.00000000)
		(1.29050279 0.19006769 0.00000000)
		(1.30726257 0.18009120 0.00000000)
		(1.32402235 0.16947943 0.00000000)
		(1.34078212 0.15826982 0.00000000)
		(1.35754190 0.14650191 0.00000000)
		(1.37430168 0.13421720 0.00000000)
		(1.39106145 0.12145905 0.00000000)
		(1.40782123 0.10827244 0.00000000)
		(1.42458101 0.09470390 0.00000000)
		(1.44134078 0.08080129 0.00000000)
		(1.45810056 0.06661366 0.00000000)
		(1.47486034 0.05219104 0.00000000)
		(1.49162011 0.03758431 0.00000000)
		(1.50837989 0.02284501 0.00000000)
		(1.52513966 0.00802512 0.00000000)
		(1.54189944 -0.00682308 0.00000000)
		(1.55865922 -0.02164721 0.00000000)
		(1.57541899 -0.03639498 0.00000000)
		(1.59217877 -0.05101437 0.00000000)
		(1.60893855 -0.06545380 0.00000000)
		(1.62569832 -0.07966234 0.00000000)
		(1.64245810 -0.09358987 0.00000000)
		(1.65921788 -0.10718726 0.00000000)
		(1.67597765 -0.12040654 0.00000000)
		(1.69273743 -0.13320109 0.00000000)
		(1.70949721 -0.14552577 0.00000000)
		(1.72625698 -0.15733710 0.00000000)
		(1.74301676 -0.16859342 0.00000000)
		(1.75977654 -0.17925502 0.00000000)
		(1.77653631 -0.18928430 0.00000000)
		(1.79329609 -0.19864587 0.00000000)
		(1.81005587 -0.20730671 0.00000000)
		(1.82681564 -0.21523628 0.00000000)
		(1.84357542 -0.22240659 0.00000000)
		(1.86033520 -0.22879236 0.00000000)
		(1.87709497 -0.23437105 0.00000000)
		(1.89385475 -0.23912300 0.00000000)
		(1.91061453 -0.24303144 0.00000000)
		(1.92737430 -0.24608257 0.00000000)
		(1.94413408 -0.24826564 0.00000000)
		(1.96089385 -0.24957295 0.00000000)
		(1.97765363 -0.24999989 0.00000000)
		(1.99441341 -0.24954494 0.00000000)
		(2.01117318 -0.24820972 0.00000000)
		(2.02793296 -0.24599893 0.00000000)
		(2.04469274 -0.24292038 0.00000000)
		(2.06145251 -0.23898492 0.00000000)
		(2.07821229 -0.23420643 0.00000000)
		(2.09497207 -0.22860177 0.00000000)
		(2.11173184 -0.22219072 0.00000000)
		(2.12849162 -0.21499588 0.00000000)
		(2.14525140 -0.20704263 0.00000000)
		(2.16201117 -0.19835905 0.00000000)
		(2.17877095 -0.18897574 0.00000000)
		(2.19553073 -0.17892582 0.00000000)
		(2.21229050 -0.16824473 0.00000000)
		(2.22905028 -0.15697015 0.00000000)
		(2.24581006 -0.14514186 0.00000000)
		(2.26256983 -0.13280158 0.00000000)
		(2.27932961 -0.11999283 0.00000000)
		(2.29608939 -0.10676081 0.00000000)
		(2.31284916 -0.09315219 0.00000000)
		(2.32960894 -0.07921497 0.00000000)
		(2.34636872 -0.06499832 0.00000000)
		(2.36312849 -0.05055238 0.00000000)
		(2.37988827 -0.03592812 0.00000000)
		(2.39664804 -0.02117712 0.00000000)
		(2.41340782 -0.00635142 0.00000000)
		(2.43016760 0.00849669 0.00000000)
		(2.44692737 0.02331482 0.00000000)
		(2.46368715 0.03805071 0.00000000)
		(2.48044693 0.05265237 0.00000000)
		(2.49720670 0.06706831 0.00000000)
		(2.51396648 0.08124765 0.00000000)
		(2.53072626 0.09514040 0.00000000)
		(2.54748603 0.10869753 0.00000000)
		(2.56424581 0.12187123 0.00000000)
		(2.58100559 0.13461503 0.00000000)
		(2.59776536 0.14688397 0.00000000)
		(2.61452514 0.15863477 0.00000000)
		(2.63128492 0.16982598 0.00000000)
		(2.64804469 0.18041813 0.00000000)
		(2.66480447 0.19037385 0.00000000)
		(2.68156425 0.19965802 0.00000000)
		(2.69832402 0.20823790 0.00000000)
		(2.71508380 0.21608320 0.00000000)
		(2.73184358 0.22316627 0.00000000)
		(2.74860335 0.22946212 0.00000000)
		(2.76536313 0.23494853 0.00000000)
		(2.78212291 0.23960615 0.00000000)
		(2.79888268 0.24341856 0.00000000)
		(2.81564246 0.24637230 0.00000000)
		(2.83240223 0.24845696 0.00000000)
		(2.84916201 0.24966518 0.00000000)
		(2.86592179 0.24999270 0.00000000)
		(2.88268156 0.24943837 0.00000000)
		(2.89944134 0.24800413 0.00000000)
		(2.91620112 0.24569505 0.00000000)
		(2.93296089 0.24251928 0.00000000)
		(2.95166480 0.23851009 0.00000000)
		(2.97036872 0.23492291 0.00000000)
		(2.98907263 0.23175776 0.00000000)
		(3.00777654 0.22901462 0.00000000)
		(3.02648045 0.22669351 0.00000000)
		(3.04518436 0.22479442 0.00000000)
		(3.06388827 0.22331734 0.00000000)
		(3.08259218 0.22226229 0.00000000)
		(3.10129609 0.22162926 0.00000000)
		(3.12000000 0.22141825 0.00000000)
		(3.14000000 0.22141825 0.00000000)
		(3.16000000 0.22141825 0.00000000)
		(3.18000000 0.22141825 0.00000000)
		(3.20000000 0.22141825 0.00000000)
		(3.22000000 0.22141825 0.00000000)
		(3.24000000 0.22141825 0.00000000)
		(3.26000000 0.22141825 0.00000000)
		(3.28000000 0.22141825 0.00000000)
		(3.30000000 0.22141825 0.00000000)
		(3.32000000 0.22141825 0.00000000)
		(3.34000000 0.22141825 0.00000000)
		(3.36000000 0.22141825 0.00000000)
		(3.38000000 0.22141825 0.00000000)
		(3.40000000 0.22141825 0.00000000)
		(3.42000000 0.22141825 0.00000000)
		(3.44000000 0.22141825 0.00000000)
		(3.46000000 0.22141825 0.00000000)
		(3.48000000 0.22141825 0.00000000)
		(3.50000000 0.22141825 0.00000000)
		(3.52000000 0.22141825 0.00000000)
		(3.54000000 0.22141825 0.00000000)
		(3.56000000 0.22141825 0.00000000)
		(3.58000000 0.22141825 0.00000000)
		(3.60000000 0.22141825 0.00000000)
		(3.62000000 0.22141825 0.00000000)
		(3.64000000 0.22141825 0.00000000)
		(3.66000000 0.22141825 0.00000000)
		(3.68000000 0.22141825 0.00000000)
		(3.70000000 0.22141825 0.00000000)
		(3.72000000 0.22141825 0.00000000)
		(3.74000000 0.22141825 0.00000000)
		(3.76000000 0.22141825 0.00000000)
		(3.78000000 0.22141825 0.00000000)
		(3.80000000 0.22141825 0.00000000)
		(3.82000000 0.22141825 0.00000000)
		(3.84000000 0.22141825 0.00000000)
		(3.86000000 0.22141825 0.00000000)
		(3.88000000 0.22141825 0.00000000)
		(3.90000000 0.22141825 0.00000000)
		(3.92000000 0.22141825 0.00000000)
		(3.94000000 0.22141825 0.00000000)
		(3.96000000 0.22141825 0.00000000)
		(3.98000000 0.22141825 0.00000000)
		(4.00000000 0.22141825 0.00000000)
	)
	polyLine 4 5
	(
		(-1.00000000 -0.18707977 0.10000000)
		(-0.98000000 -0.18707977 0.10000000)
		(-0.96000000 -0.18707977 0.10000000)
		(-0.94000000 -0.18707977 0.10000000)
		(-0.92000000 -0.18707977 0.10000000)
		(-0.90000000 -0.18707977 0.10000000)
		(-0.88000000 -0.18707977 0.10000000)
		(-0.86000000 -0.18707977 0.10000000)
		(-0.84000000 -0.18707977 0.10000000)
		(-0.82000000 -0.18707977 0.10000000)
		(-0.80000000 -0.18707977 0.10000000)
		(-0.78000000 -0.18707977 0.10000000)
		(-0.76000000 -0.18707977 0.10000000)
		(-0.74000000 -0.18707977 0.10000000)
		(-0.72000000 -0.18707977 0.10000000)
		(-0.70000000 -0.18707977 0.10000000)
		(-0.68000000 -0.18707977 0.10000000)
		(-0.66000000 -0.18707977 0.10000000)
		(-0.64000000 -0.18707977 0.10000000)
		(-0.62000000 -0.18707977 0.10000000)
		(-0.60000000 -0.18707977 0.10000000)
		(-0.58000000 -0.18707977 0.10000000)
		(-0.56000000 -0.18707977 0.10000000)
		(-0.54000000 -0.18707977 0.10000000)
		(-0.52000000 -0.18707977 0.10000000)
		(-0.50000000 -0.18707977 0.10000000)
		(-0.48000000 -0.18707977 0.10000000)
		(-0.46000000 -0.18707977 0.10000000)
		(-0.44000000 -0.18707977 0.10000000)
		(-0.42000000 -0.18707977 0.10000000)
		(-0.40000000 -0.18707977 0.10000000)
		(-0.38000000 -0.18707977 0.10000000)
		(-0.36000000 -0.18707977 0.10000000)
		(-0.34000000 -0.18707977 0.10000000)
		(-0.32000000 -0.18707977 0.10000000)
		(-0.30000000 -0.18707977 0.10000000)
		(-0.28000000 -0.18707977 0.10000000)
		(-0.26000000 -0.18707977 0.10000000)
		(-0.24000000 -0.18707977 0.10000000)
		(-0.22000000 -0.18707977 0.10000000)
		(-0.20000000 -0.18707977 0.10000000)
		(-0.18000000 -0.18707977 0.10000000)
		(-0.16000000 -0.18707977 0.10000000)
		(-0.14000000 -0.18707977 0.10000000)
		(-0.12000000 -0.18707977 0.10000000)
		(-0.10000000 -0.18707977 0.10000000)
		(-0.08162011 -0.18748319 0.10000000)
		(-0.06324022 -0.18869346 0.10000000)
		(-0.04486034 -0.19071058 0.10000000)
		(-0.02648045 -0.19353454 0.10000000)
		(-0.00810056 -0.19716535 0.10000000)
		(0.01027933 -0.20160300 0.10000000)
		(0.02865922 -0.20684750 0.10000000)
		(0.04703911 -0.21289885 0.10000000)
		(0.06541899 -0.21975704 0.10000000)
		(0.08379888 -0.22742208 0.10000000)
		(0.10055866 -0.23318459 0.10000000)
		(0.11731844 -0.23812454 0.10000000)
		(0.13407821 -0.24222450 0.10000000)
		(0.15083799 -0.24547001 0.10000000)
		(0.16759777 -0.24784961 0.10000000)
		(0.18435754 -0.24935492 0.10000000)
		(0.20111732 -0.24998062 0.10000000)
		(0.21787709 -0.24972451 0.10000000)
		(0.23463687 -0.24858749 0.10000000)
		(0.25139665 -0.24657357 0.10000000)
		(0.26815642 -0.24368986 0.10000000)
		(0.28491620 -0.23994653 0.10000000)
		(0.30167598 -0.23535677 0.10000000)
		(0.31843575 -0.22993680 0.10000000)
		(0.33519553 -0.22370571 0.10000000)
		(0.35195531 -0.21668550 0.10000000)
		(0.36871508 -0.20890092 0.10000000)
		(0.38547486 -0.20037944 0.10000000)
		(0.40223464 -0.19115111 0.10000000)
		(0.41899441 -0.18124850 0.10000000)
		(0.43575419 -0.17070653 0.10000000)
		(0.45251397 -0.15956238 0.10000000)
		(0.46927374 -0.14785538 0.10000000)
		(0.48603352 -0.13562681 0.10000000)
		(0.50279330 -0.12291982 0.10000000)
		(0.51955307 -0.10977922 0.10000000)
		(0.53631285 -0.09625137 0.10000000)
		(0.55307263 -0.08238400 0.10000000)
		(0.56983240 -0.06822601 0.10000000)
		(0.58659218 -0.05382735 0.10000000)
		(0.60335196 -0.03923882 0.10000000)
		(0.62011173 -0.02451187 0.10000000)
		(0.63687151 -0.00969845 0.10000000)
		(0.65363128 0.00514917 0.10000000)
		(0.67039106 0.01997864 0.10000000)
		(0.68715084 0.03473762 0.10000000)
		(0.70391061 0.04937408 0.10000000)
		(0.72067039 0.06383636 0.10000000)
		(0.73743017 0.07807346 0.10000000)
		(0.75418994 0.09203515 0.10000000)
		(0.77094972 0.10567218 0.10000000)
		(0.78770950 0.11893646 0.10000000)
		(0.80446927 0.13178118 0.10000000)
		(0.82122905 0.14416104 0.10000000)
		(0.83798883 0.15603237 0.10000000)
		(0.85474860 0.16735329 0.10000000)
		(0.87150838 0.17808387 0.10000000)
		(0.88826816 0.18818626 0.10000000)
		(0.90502793 0.19762481 0.10000000)
		(0.92178771 0.20636623 0.10000000)
		(0.93854749 0.21437970 0.10000000)
		(0.95530726 0.22163693 0.10000000)
		(0.97206704 0.22811233 0.10000000)
		(0.98882682 0.23378307 0.10000000)
		(1.00558659 0.23862912 0.10000000)
		(1.02234637 0.24263341 0.10000000)
		(1.03910615 0.24578180 0.10000000)
		(1.05586592 0.24806319 0.10000000)
		(1.07262570 0.24946953 0.10000000)
		(1.08938547 0.24999586 0.10000000)
		(1.10614525 0.24964033 0.10000000)
		(1.12290503 0.24840418 0.10000000)
		(1.13966480 0.24629178 0.10000000)
		(1.15642458 0.24331058 0.10000000)
		(1.17318436 0.23947109 0.10000000)
		(1.18994413 0.23478687 0.10000000)
		(1.20670391 0.22927443 0.10000000)
		(1.22346369 0.22295321 0.10000000)
		(1.24022346 0.21584553 0.10000000)
		(1.25698324 0.20797644 0.10000000)
		(1.27374302 0.19937371 0.10000000)
		(1.29050279 0.19006769 0.10000000)
		(1.30726257 0.18009120 0.10000000)
		(1.32402235 0.16947943 0.10000000)
		(1.34078212 0.15826982 0.10000000)
		(1.35754190 0.14650191 0.10000000)
		(1.37430168 0.13421720 0.10000000)
		(1.39106145 0.12145905 0.10000000)
		(1.40782123 0.10827244 0.10000000)
		(1.42458101 0.09470390 0.10000000)
		(1.44134078 0.08080129 0.10000000)
		(1.45810056 0.06661366 0.10000000)
		(1.47486034 0.05219104 0.10000000)
		(1.49162011 0.03758431 0.10000000)
		(1.50837989 0.02284501 0.10000000)
		(1.52513966 0.00802512 0.10000000)
		(1.54189944 -0.00682308 0.10000000)
		(1.55865922 -0.02164721 0.10000000)
		(1.57541899 -0.03639498 0.10000000)
		(1.59217877 -0.05101437 0.10000000)
		(1.60893855 -0.06545380 0.10000000)
		(1.62569832 -0.07966234 0.10000000)
		(1.64245810 -0.09358987 0.10000000)
		(1.65921788 -0.10718726 0.10000000)
		(1.67597765 -0.12040654 0.10000000)
		(1.69273743 -0.13320109 0.10000000)
		(1.70949721 -0.14552577 0.10000000)
		(1.72625698 -0.15733710 0.10000000)
		(1.74301676 -0.16859342 0.10000000)
		(1.75977654 -0.17925502 0.10000000)
		(1.77653631 -0.18928430 0.10000000)
		(1.79329609 -0.19864587 0.10000000)
		(1.81005587 -0.20730671 0.10000000)
		(1.82681564 -0.21523628 0.10000000)
		(1.84357542 -0.22240659 0.10000000)
		(1.86033520 -0.22879236 0.10000000)
		(1.87709497 -0.23437105 0.10000000)
		(1.89385475 -0.23912300 0.10000000)
		(1.91061453 -0.24303144 0.10000000)
		(1.92737430 -0.24608257 0.10000000)
		(1.94413408 -0.24826564 0.10000000)
		(1.96089385 -0.24957295 0.10000000)
		(1.97765363 -0.24999989 0.10000000)
		(1.99441341 -0.24954494 0.10000000)
		(2.01117318 -0.24820972 0.10000000)
		(2.02793296 -0.24599893 0.10000000)
		(2.04469274 -0.24292038 0.10000000)
		(2.06145251 -0.23898492 0.10000000)
		(2.07821229 -0.23420643 0.10000000)
		(2.09497207 -0.22860177 0.10000000)
		(2.11173184 -0.22219072 0.10000000)
		(2.12849162 -0.21499588 0.10000000)
		(2.14525140 -0.20704263 0.10000000)
		(2.16201117 -0.19835905 0.10000000)
		(2.17877095 -0.18897574 0.10000000)
		(2.19553073 -0.17892582 0.10000000)
		(2.21229050 -0.16824473 0.10000000)
		(2.22905028 -0.15697015 0.10000000)
		(2.24581006 -0.14514186 0.10000000)
		(2.26256983 -0.13280158 0.10000000)
		(2.27932961 -0.11999283 0.10000000)
		(2.29608939 -0.10676081 0.10000000)
		(2.31284916 -0.09315219 0.10000000)
		(2.32960894 -0.07921497 0.10000000)
		(2.34636872 -0.06499832 0.10000000)
		(2.36312849 -0.05055238 0.10000000)
		(2.37988827 -0.03592812 0.10000000)
		(2.39664804 -0.02117712 0.10000000)
		(2.41340782 -0.00635142 0.10000000)
		(2.43016760 0.00849669 0.10000000)
		(2.44692737 0.02331482 0.10000000)
		(2.46368715 0.03805071 0.10000000)
		(2.48044693 0.05265237 0.10000000)
		(2.49720670 0.06706831 0.10000000)
		(2.51396648 0.08124765 0.10000000)
		(2.53072626 0.09514040 0.10000000)
		(2.54748603 0.10869753 0.10000000)
		(2.56424581 0.12187123 0.10000000)
		(2.58100559 0.13461503 0.10000000)
		(2.59776536 0.14688397 0.10000000)
		(2.61452514 0.15863477 0.10000000)
		(2.63128492 0.16982598 0.10000000)
		(2.64804469 0.18041813 0.10000000)
		(2.66480447 0.19037385 0.10000000)
		(2.68156425 0.19965802 0.10000000)
		(2.69832402 0.20823790 0.10000000)
		(2.71508380 0.21608320 0.10000000)
		(2.73184358 0.22316627 0.10000000)
		(2.74860335 0.22946212 0.10000000)
		(2.76536313 0.23494853 0.10000000)
		(2.78212291 0.23960615 0.10000000)
		(2.79888268 0.24341856 0.10000000)
		(2.81564246 0.24637230 0.10000000)
		(2.83240223 0.24845696 0.10000000)
		(2.84916201 0.24966518 0.10000000)
		(2.86592179 0.24999270 0.10000000)
		(2.88268156 0.24943837 0.10000000)
		(2.89944134 0.24800413 0.10000000)
		(2.91620112 0.24569505 0.10000000)
		(2.93296089 0.24251928 0.10000000)
		(2.95166480 0.23851009 0.10000000)
		(2.97036872 0.23492291 0.10000000)
		(2.98907263 0.23175776 0.10000000)
		(3.00777654 0.22901462 0.10000000)
		(3.02648045 0.22669351 0.10000000)
		(3.04518436 0.22479442 0.10000000)
		(3.06388827 0.22331734 0.10000000)
		(3.08259218 0.22226229 0.10000000)
		(3.10129609 0.22162926 0.10000000)
		(3.12000000 0.22141825 0.10000000)
		(3.14000000 0.22141825 0.10000000)
		(3.16000000 0.22141825 0.10000000)
		(3.18000000 0.22141825 0.10000000)
		(3.20000000 0.22141825 0.10000000)
		(3.22000000 0.22141825 0.10000000)
		(3.24000000 0.22141825 0.10000000)
		(3.26000000 0.22141825 0.10000000)
		(3.28000000 0.22141825 0.10000000)
		(3.30000000 0.22141825 0.10000000)
		(3.32000000 0.22141825 0.10000000)
		(3.34000000 0.22141825 0.10000000)
		(3.36000000 0.22141825 0.10000000)
		(3.38000000 0.22141825 0.10000000)
		(3.40000000 0.22141825 0.10000000)
		(3.42000000 0.22141825 0.10000000)
		(3.44000000 0.22141825 0.10000000)
		(3.46000000 0.22141825 0.10000000)
		(3.48000000 0.22141825 0.10000000)
		(3.50000000 0.22141825 0.10000000)
		(3.52000000 0.22141825 0.10000000)
		(3.54000000 0.22141825 0.10000000)
		(3.56000000 0.22141825 0.10000000)
		(3.58000000 0.22141825 0.10000000)
		(3.60000000 0.22141825 0.10000000)
		(3.62000000 0.22141825 0.10000000)
		(3.64000000 0.22141825 0.10000000)
		(3.66000000 0.22141825 0.10000000)
		(3.68000000 0.22141825 0.10000000)
		(3.70000000 0.22141825 0.10000000)
		(3.72000000 0.22141825 0.10000000)
		(3.74000000 0.22141825 0.10000000)
		(3.76000000 0.22141825 0.10000000)
		(3.78000000 0.22141825 0.10000000)
		(3.80000000 0.22141825 0.10000000)
		(3.82000000 0.22141825 0.10000000)
		(3.84000000 0.22141825 0.10000000)
		(3.86000000 0.22141825 0.10000000)
		(3.88000000 0.22141825 0.10000000)
		(3.90000000 0.22141825 0.10000000)
		(3.92000000 0.22141825 0.10000000)
		(3.94000000 0.22141825 0.10000000)
		(3.96000000 0.22141825 0.10000000)
		(3.98000000 0.22141825 0.10000000)
		(4.00000000 0.22141825 0.10000000)
	)
	polyLine 3 2
	(
		(-1.00000000 0.31292023 0.00000000)
		(-0.98000000 0.31192309 0.00000000)
		(-0.96000000 0.31092595 0.00000000)
		(-0.94000000 0.30992881 0.00000000)
		(-0.92000000 0.30893166 0.00000000)
		(-0.90000000 0.30793452 0.00000000)
		(-0.88000000 0.30693738 0.00000000)
		(-0.86000000 0.30594024 0.00000000)
		(-0.84000000 0.30494310 0.00000000)
		(-0.82000000 0.30394596 0.00000000)
		(-0.80000000 0.30294882 0.00000000)
		(-0.78000000 0.30195167 0.00000000)
		(-0.76000000 0.30095453 0.00000000)
		(-0.74000000 0.29995739 0.00000000)
		(-0.72000000 0.29896025 0.00000000)
		(-0.70000000 0.29796311 0.00000000)
		(-0.68000000 0.29696597 0.00000000)
		(-0.66000000 0.29596883 0.00000000)
		(-0.64000000 0.29497168 0.00000000)
		(-0.62000000 0.29397454 0.00000000)
		(-0.60000000 0.29297740 0.00000000)
		(-0.58000000 0.29198026 0.00000000)
		(-0.56000000 0.29098312 0.00000000)
		(-0.54000000 0.28998598 0.00000000)
		(-0.52000000 0.28898884 0.00000000)
		(-0.50000000 0.28799169 0.00000000)
		(-0.48000000 0.28699455 0.00000000)
		(-0.46000000 0.28599741 0.00000000)
		(-0.44000000 0.28500027 0.00000000)
		(-0.42000000 0.28400313 0.00000000)
		(-0.40000000 0.28300599 0.00000000)
		(-0.38000000 0.28200885 0.00000000)
		(-0.36000000 0.28101170 0.00000000)
		(-0.34000000 0.28001456 0.00000000)
		(-0.32000000 0.27901742 0.00000000)
		(-0.30000000 0.27802028 0.00000000)
		(-0.28000000 0.27702314 0.00000000)
		(-0.26000000 0.27602600 0.00000000)
		(-0.24000000 0.27502886 0.00000000)
		(-0.22000000 0.27403172 0.00000000)
		(-0.20000000 0.27303457 0.00000000)
		(-0.18000000 0.27203743 0.00000000)
		(-0.16000000 0.27104029 0.00000000)
		(-0.14000000 0.27004315 0.00000000)
		(-0.12000000 0.26904601 0.00000000)
		(-0.10000000 0.26804887 0.00000000)
		(-0.08162011 0.26769265 0.00000000)
		(-0.06324022 0.26619633 0.00000000)
		(-0.04486034 0.26355989 0.00000000)
		(-0.02648045 0.25978334 0.00000000)
		(-0.00810056 0.25486668 0.00000000)
		(0.01027933 0.24880991 0.00000000)
		(0.02865922 0.24161303 0.00000000)
		(0.04703911 0.23327604 0.00000000)
		(0.06541899 0.22379894 0.00000000)
		(0.08379888 0.21318172 0.00000000)
		(0.10055866 0.20591421 0.00000000)
		(0.11731844 0.19968408 0.00000000)
		(0.13407821 0.19451333 0.00000000)
		(0.15083799 0.19042019 0.00000000)
		(0.16759777 0.18741910 0.00000000)
		(0.18435754 0.18552065 0.00000000)
		(0.20111732 0.18473153 0.00000000)
		(0.21787709 0.18505453 0.00000000)
		(0.23463687 0.18648851 0.00000000)
		(0.25139665 0.18902840 0.00000000)
		(0.26815642 0.19266526 0.00000000)
		(0.28491620 0.19738625 0.00000000)
		(0.30167598 0.20317471 0.00000000)
		(0.31843575 0.21001024 0.00000000)
		(0.33519553 0.21786870 0.00000000)
		(0.35195531 0.22672240 0.00000000)
		(0.36871508 0.23654009 0.00000000)
		(0.38547486 0.24728714 0.00000000)
		(0.40223464 0.25892564 0.00000000)
		(0.41899441 0.27141453 0.00000000)
		(0.43575419 0.28470977 0.00000000)
		(0.45251397 0.29876445 0.00000000)
		(0.46927374 0.31352899 0.00000000)
		(0.48603352 0.32895131 0.00000000)
		(0.50279330 0.34497702 0.00000000)
		(0.51955307 0.36154956 0.00000000)
		(0.53631285 0.37861050 0.00000000)
		(0.55307263 0.39609964 0.00000000)
		(0.56983240 0.41395529 0.00000000)
		(0.58659218 0.43211447 0.00000000)
		(0.60335196 0.45051311 0.00000000)
		(0.62011173 0.46908633 0.00000000)
		(0.63687151 0.48776859 0.00000000)
		(0.65363128 0.50649399 0.00000000)
		(0.67039106 0.52519649 0.00000000)
		(0.68715084 0.54381011 0.00000000)
		(0.70391061 0.56226918 0.00000000)
		(0.72067039 0.58050860 0.00000000)
		(0.73743017 0.59846403 0.00000000)
		(0.75418994 0.61607212 0.00000000)
		(0.77094972 0.63327076 0.00000000)
		(0.78770950 0.64999929 0.00000000)
		(0.80446927 0.66619869 0.00000000)
		(0.82122905 0.68181182 0.00000000)
		(0.83798883 0.69678360 0.00000000)
		(0.85474860 0.71106123 0.00000000)
		(0.87150838 0.72459433 0.00000000)
		(0.88826816 0.73733517 0.00000000)
		(0.90502793 0.74923880 0.00000000)
		(0.92178771 0.76026324 0.00000000)
		(0.93854749 0.77036959 0.00000000)
		(0.95530726 0.77952221 0.00000000)
		(0.97206704 0.78768881 0.00000000)
		(0.98882682 0.79484057 0.00000000)
		(1.00558659 0.80095228 0.00000000)
		(1.02234637 0.80600237 0.00000000)
		(1.03910615 0.80997304 0.00000000)
		(1.05586592 0.81285026 0.00000000)
		(1.07262570 0.81462390 0.00000000)
		(1.08938547 0.81528769 0.00000000)
		(1.10614525 0.81483930 0.00000000)
		(1.12290503 0.81328030 0.00000000)
		(1.13966480 0.81061620 0.00000000)
		(1.15642458 0.80685640 0.00000000)
		(1.17318436 0.80201415 0.00000000)
		(1.18994413 0.79610654 0.00000000)
		(1.20670391 0.78915440 0.00000000)
		(1.22346369 0.78118227 0.00000000)
		(1.24022346 0.77221826 0.00000000)
		(1.25698324 0.76229399 0.00000000)
		(1.27374302 0.75144447 0.00000000)
		(1.29050279 0.73970798 0.00000000)
		(1.30726257 0.72712591 0.00000000)
		(1.32402235 0.71374265 0.00000000)
		(1.34078212 0.69960540 0.00000000)
		(1.35754190 0.68476405 0.00000000)
		(1.37430168 0.66927093 0.00000000)
		(1.39106145 0.65318071 0.00000000)
		(1.40782123 0.63655013 0.00000000)
		(1.42458101 0.61943788 0.00000000)
		(1.44134078 0.60190430 0.00000000)
		(1.45810056 0.58401125 0.00000000)
		(1.47486034 0.56582185 0.00000000)
		(1.49162011 0.54740027 0.00000000)
		(1.50837989 0.52881148 0.00000000)
		(1.52513966 0.51012105 0.00000000)
		(1.54189944 0.49139492 0.00000000)
		(1.55865922 0.47269915 0.00000000)
		(1.57541899 0.45409968 0.00000000)
		(1.59217877 0.43566213 0.00000000)
		(1.60893855 0.41745152 0.00000000)
		(1.62569832 0.39953212 0.00000000)
		(1.64245810 0.38196711 0.00000000)
		(1.65921788 0.36481847 0.00000000)
		(1.67597765 0.34814668 0.00000000)
		(1.69273743 0.33201056 0.00000000)
		(1.70949721 0.31646703 0.00000000)
		(1.72625698 0.30157091 0.00000000)
		(1.74301676 0.28737476 0.00000000)
		(1.75977654 0.27392865 0.00000000)
		(1.77653631 0.26128001 0.00000000)
		(1.79329609 0.24947346 0.00000000)
		(1.81005587 0.23855065 0.00000000)
		(1.82681564 0.22855011 0.00000000)
		(1.84357542 0.21950712 0.00000000)
		(1.86033520 0.21145357 0.00000000)
		(1.87709497 0.20441787 0.00000000)
		(1.89385475 0.19842485 0.00000000)
		(1.91061453 0.19349565 0.00000000)
		(1.92737430 0.18964764 0.00000000)
		(1.94413408 0.18689441 0.00000000)
		(1.96089385 0.18524567 0.00000000)
		(1.97765363 0.18470723 0.00000000)
		(1.99441341 0.18528100 0.00000000)
		(2.01117318 0.18696494 0.00000000)
		(2.02793296 0.18975312 0.00000000)
		(2.04469274 0.19363571 0.00000000)
		(2.06145251 0.19859900 0.00000000)
		(2.07821229 0.20462550 0.00000000)
		(2.09497207 0.21169393 0.00000000)
		(2.11173184 0.21977937 0.00000000)
		(2.12849162 0.22885330 0.00000000)
		(2.14525140 0.23888370 0.00000000)
		(2.16201117 0.24983520 0.00000000)
		(2.17877095 0.26166916 0.00000000)
		(2.19553073 0.27434384 0.00000000)
		(2.21229050 0.28781452 0.00000000)
		(2.22905028 0.30203370 0.00000000)
		(2.24581006 0.31695120 0.00000000)
		(2.26256983 0.33251442 0.00000000)
		(2.27932961 0.34866844 0.00000000)
		(2.29608939 0.36535629 0.00000000)
		(2.31284916 0.38251910 0.00000000)
		(2.32960894 0.40009633 0.00000000)
		(2.34636872 0.41802597 0.00000000)
		(2.36312849 0.43624477 0.00000000)
		(2.37988827 0.45468848 0.00000000)
		(2.39664804 0.47329202 0.00000000)
		(2.41340782 0.49198977 0.00000000)
		(2.43016760 0.51071578 0.00000000)
		(2.44692737 0.52940399 0.00000000)
		(2.46368715 0.54798847 0.00000000)
		(2.48044693 0.56640368 0.00000000)
		(2.49720670 0.58458464 0.00000000)
		(2.51396648 0.60246724 0.00000000)