/*--------------------------------*- C++ -*----------------------------------*\\
/*--------------------------------*- C++ -*----------------------------------*\\
| =========                 |                                                 |
| \\\\      /  F ield         | OpenFOAM: The Open Source CFD Toolbox           |
|  \\\\    /   O peration     | Version:  v2012                                 |
|   \\\\  /    A nd           | Website:  www.openfoam.com                      |
|    \\\\/     M anipulation  |                                                 |
\\*---------------------------------------------------------------------------*/
FoamFile
{
    version     2.0;
    format      ascii;
    class       dictionary;
    object      blockMeshDict;
}
// * * * * * * * * * * * * * * * * * * * * * * * * * * * * * * * * * * * * * //

scale   0.01;

xmin -1;
xmax 5;
ymin 0;
ymax 0.5;
zmin 0;
zmax 0.1;

vertices
(
    (-1.00000000 -0.21473373 0.00000000)
    (4.00000000 -0.16721340 0.00000000)
    (4.00000000 0.33278660 0.00000000)
    (-1.00000000 0.28526627 0.00000000)
    (-1.00000000 -0.21473373 0.10000000)
    (4.00000000 -0.16721340 0.10000000)
    (4.00000000 0.33278660 0.10000000)
    (-1.00000000 0.28526627 0.10000000)
);

blocks
(
    hex (0 1 2 3 4 5 6 7) (200 20 1) simpleGrading (1 1 1)
);

edges
(
	polyLine 0 1
	(
		(-1.00000000 -0.21473373 0.00000000)
		(-0.98000000 -0.21473373 0.00000000)
		(-0.96000000 -0.21473373 0.00000000)
		(-0.94000000 -0.21473373 0.00000000)
		(-0.92000000 -0.21473373 0.00000000)
		(-0.90000000 -0.21473373 0.00000000)
		(-0.88000000 -0.21473373 0.00000000)
		(-0.86000000 -0.21473373 0.00000000)
		(-0.84000000 -0.21473373 0.00000000)
		(-0.82000000 -0.21473373 0.00000000)
		(-0.80000000 -0.21473373 0.00000000)
		(-0.78000000 -0.21473373 0.00000000)
		(-0.76000000 -0.21473373 0.00000000)
		(-0.74000000 -0.21473373 0.00000000)
		(-0.72000000 -0.21473373 0.00000000)
		(-0.70000000 -0.21473373 0.00000000)
		(-0.68000000 -0.21473373 0.00000000)
		(-0.66000000 -0.21473373 0.00000000)
		(-0.64000000 -0.21473373 0.00000000)
		(-0.62000000 -0.21473373 0.00000000)
		(-0.60000000 -0.21473373 0.00000000)
		(-0.58000000 -0.21473373 0.00000000)
		(-0.56000000 -0.21473373 0.00000000)
		(-0.54000000 -0.21473373 0.00000000)
		(-0.52000000 -0.21473373 0.00000000)
		(-0.50000000 -0.21473373 0.00000000)
		(-0.48000000 -0.21473373 0.00000000)
		(-0.46000000 -0.21473373 0.00000000)
		(-0.44000000 -0.21473373 0.00000000)
		(-0.42000000 -0.21473373 0.00000000)
		(-0.40000000 -0.21473373 0.00000000)
		(-0.38000000 -0.21473373 0.00000000)
		(-0.36000000 -0.21473373 0.00000000)
		(-0.34000000 -0.21473373 0.00000000)
		(-0.32000000 -0.21473373 0.00000000)
		(-0.30000000 -0.21473373 0.00000000)
		(-0.28000000 -0.21473373 0.00000000)
		(-0.26000000 -0.21473373 0.00000000)
		(-0.24000000 -0.21473373 0.00000000)
		(-0.22000000 -0.21473373 0.00000000)
		(-0.20000000 -0.21473373 0.00000000)
		(-0.18000000 -0.21473373 0.00000000)
		(-0.16000000 -0.21473373 0.00000000)
		(-0.14000000 -0.21473373 0.00000000)
		(-0.12000000 -0.21473373 0.00000000)
		(-0.10000000 -0.21473373 0.00000000)
		(-0.08162011 -0.21505900 0.00000000)
		(-0.06324022 -0.21603482 0.00000000)
		(-0.04486034 -0.21766117 0.00000000)
		(-0.02648045 -0.21993807 0.00000000)
		(-0.00810056 -0.22286552 0.00000000)
		(0.01027933 -0.22644350 0.00000000)
		(0.02865922 -0.23067203 0.00000000)
		(0.04703911 -0.23555111 0.00000000)
		(0.06541899 -0.24108072 0.00000000)
		(0.08379888 -0.24726088 0.00000000)
		(0.10055866 -0.24938290 0.00000000)
		(0.11731844 -0.24999276 0.00000000)
		(0.13407821 -0.24908676 0.00000000)
		(0.15083799 -0.24667039 0.00000000)
		(0.16759777 -0.24275831 0.00000000)
		(0.18435754 -0.23737423 0.00000000)
		(0.20111732 -0.23055081 0.00000000)
		(0.21787709 -0.22232942 0.00000000)
		(0.23463687 -0.21275991 0.00000000)
		(0.25139665 -0.20190031 0.00000000)
		(0.26815642 -0.18981646 0.00000000)
		(0.28491620 -0.17658164 0.00000000)
		(0.30167598 -0.16227609 0.00000000)
		(0.31843575 -0.14698657 0.00000000)
		(0.33519553 -0.13080577 0.00000000)
		(0.35195531 -0.11383183 0.00000000)
		(0.36871508 -0.09616764 0.00000000)
		(0.38547486 -0.07792034 0.00000000)
		(0.40223464 -0.05920055 0.00000000)
		(0.41899441 -0.04012180 0.00000000)
		(0.43575419 -0.02079976 0.00000000)
		(0.45251397 -0.00135161 0.00000000)
		(0.46927374 0.01810475 0.00000000)
		(0.48603352 0.03745132 0.00000000)
		(0.50279330 0.05657080 0.00000000)
		(0.51955307 0.07534726 0.00000000)
		(0.53631285 0.09366685 0.00000000)
		(0.55307263 0.11141847 0.00000000)
		(0.56983240 0.12849449 0.00000000)
		(0.58659218 0.14479138 0.00000000)
		(0.60335196 0.16021030 0.00000000)
		(0.62011173 0.17465778 0.00000000)
		(0.63687151 0.18804619 0.00000000)
		(0.65363128 0.20029437 0.00000000)
		(0.67039106 0.21132804 0.00000000)
		(0.68715084 0.22108029 0.00000000)
		(0.70391061 0.22949200 0.00000000)
		(0.72067039 0.23651216 0.00000000)
		(0.73743017 0.24209821 0.00000000)
		(0.75418994 0.24621626 0.00000000)
		(0.77094972 0.24884135 0.00000000)
		(0.78770950 0.24995757 0.00000000)
		(0.80446927 0.24955814 0.00000000)
		(0.82122905 0.24764548 0.00000000)
		(0.83798883 0.24423120 0.00000000)
		(0.85474860 0.23933599 0.00000000)
		(0.87150838 0.23298955 0.00000000)
		(0.88826816 0.22523034 0.00000000)
		(0.90502793 0.21610543 0.00000000)
		(0.92178771 0.20567014 0.00000000)
		(0.93854749 0.19398774 0.00000000)
		(0.95530726 0.18112908 0.00000000)
		(0.97206704 0.16717212 0.00000000)
		(0.98882682 0.15220149 0.00000000)
		(1.00558659 0.13630797 0.00000000)
		(1.02234637 0.11958793 0.00000000)
		(1.03910615 0.10214276 0.00000000)
		(1.05586592 0.08407823 0.00000000)
		(1.07262570 0.06550389 0.00000000)
		(1.08938547 0.04653235 0.00000000)
		(1.10614525 0.02727867 0.00000000)
		(1.12290503 0.00785957 0.00000000)
		(1.13966480 -0.01160718 0.00000000)
		(1.15642458 -0.03100355 0.00000000)
		(1.17318436 -0.05021193 0.00000000)
		(1.18994413 -0.06911585 0.00000000)
		(1.20670391 -0.08760067 0.00000000)
		(1.22346369 -0.10555431 0.00000000)
		(1.24022346 -0.12286791 0.00000000)
		(1.25698324 -0.13943650 0.00000000)
		(1.27374302 -0.15515959 0.00000000)
		(1.29050279 -0.16994185 0.00000000)
		(1.30726257 -0.18369365 0.00000000)
		(1.32402235 -0.19633161 0.00000000)
		(1.34078212 -0.20777908 0.00000000)
		(1.35754190 -0.21796667 0.00000000)
		(1.37430168 -0.22683259 0.00000000)
		(1.39106145 -0.23432308 0.00000000)
		(1.40782123 -0.24039273 0.00000000)
		(1.42458101 -0.24500473 0.00000000)
		(1.44134078 -0.24813112 0.00000000)
		(1.45810056 -0.24975293 0.00000000)
		(1.47486034 -0.24986034 0.00000000)
		(1.49162011 -0.24845270 0.00000000)
		(1.50837989 -0.24553853 0.00000000)
		(1.52513966 -0.24113551 0.00000000)
		(1.54189944 -0.23527034 0.00000000)
		(1.55865922 -0.22797859 0.00000000)
		(1.57541899 -0.21930445 0.00000000)
		(1.59217877 -0.20930054 0.00000000)
		(1.60893855 -0.19802752 0.00000000)
		(1.62569832 -0.18555373 0.00000000)
		(1.64245810 -0.17195481 0.00000000)
		(1.65921788 -0.15731323 0.00000000)
		(1.67597765 -0.14171776 0.00000000)
		(1.69273743 -0.12526297 0.00000000)
		(1.70949721 -0.10804864 0.00000000)
		(1.72625698 -0.09017913 0.00000000)
		(1.74301676 -0.07176282 0.00000000)
		(1.75977654 -0.05291137 0.00000000)
		(1.77653631 -0.03373908 0.00000000)
		(1.79329609 -0.01436221 0.00000000)
		(1.81005587 0.00510175 0.00000000)
		(1.82681564 0.02453477 0.00000000)
		(1.84357542 0.04381902 0.00000000)
		(1.86033520 0.06283758 0.00000000)
		(1.87709497 0.08147510 0.00000000)
		(1.89385475 0.09961860 0.00000000)
		(1.91061453 0.11715804 0.00000000)
		(1.92737430 0.13398709 0.00000000)
		(1.94413408 0.15000369 0.00000000)
		(1.96089385 0.16511072 0.00000000)
		(1.97765363 0.17921659 0.00000000)
		(1.99441341 0.19223576 0.00000000)
		(2.01117318 0.20408928 0.00000000)
		(2.02793296 0.21470529 0.00000000)
		(2.04469274 0.22401940 0.00000000)
		(2.06145251 0.23197515 0.00000000)
		(2.07821229 0.23852429 0.00000000)
		(2.09497207 0.24362711 0.00000000)
		(2.11173184 0.24725268 0.00000000)
		(2.12849162 0.24937899 0.00000000)
		(2.14525140 0.24999317 0.00000000)
		(2.16201117 0.24909149 0.00000000)
		(2.17877095 0.24667941 0.00000000)
		(2.19553073 0.24277157 0.00000000)
		(2.21229050 0.23739165 0.00000000)
		(2.22905028 0.23057228 0.00000000)
		(2.24581006 0.22235481 0.00000000)
		(2.26256983 0.21278907 0.00000000)
		(2.27932961 0.20193305 0.00000000)
		(2.29608939 0.18985260 0.00000000)
		(2.31284916 0.17662095 0.00000000)
		(2.32960894 0.16231833 0.00000000)
		(2.34636872 0.14703149 0.00000000)
		(2.36312849 0.13085310 0.00000000)
		(2.37988827 0.11388127 0.00000000)
		(2.39664804 0.09621890 0.00000000)
		(2.41340782 0.07797310 0.00000000)
		(2.43016760 0.05925451 0.00000000)
		(2.44692737 0.04017661 0.00000000)
		(2.46368715 0.02085511 0.00000000)
		(2.48044693 0.00140714 0.00000000)
		(2.49720670 -0.01804936 0.00000000)
		(2.51396648 -0.03739641 0.00000000)
		(2.53072626 -0.05651671 0.00000000)
		(2.54748603 -0.07529431 0.00000000)
		(2.56424581 -0.09361535 0.00000000)
		(2.58100559 -0.11136875 0.00000000)
		(2.59776536 -0.12844685 0.00000000)
		(2.61452514 -0.14474610 0.00000000)
		(2.63128492 -0.16016767 0.00000000)
		(2.64804469 -0.17461804 0.00000000)
		(2.66480447 -0.18800959 0.00000000)
		(2.68156425 -0.20026113 0.00000000)
		(2.69832402 -0.21129836 0.00000000)
		(2.71508380 -0.22105436 0.00000000)
		(2.73184358 -0.22946997 0.00000000)
		(2.74860335 -0.23649416 0.00000000)
		(2.76536313 -0.24208435 0.00000000)
		(2.78212291 -0.24620663 0.00000000)
		(2.79888268 -0.24883600 0.00000000)
		(2.81564246 -0.24995654 0.00000000)
		(2.83240223 -0.24956143 0.00000000)
		(2.84916201 -0.24765308 0.00000000)
		(2.86592179 -0.24424305 0.00000000)
		(2.88268156 -0.23935204 0.00000000)
		(2.89944134 -0.23300968 0.00000000)
		(2.91620112 -0.22525444 0.00000000)
		(2.93296089 -0.21613335 0.00000000)
		(2.95166480 -0.20683856 0.00000000)
		(2.97036872 -0.19852217 0.00000000)
		(2.98907263 -0.19118418 0.00000000)
		(3.00777654 -0.18482458 0.00000000)
		(3.02648045 -0.17944339 0.00000000)
		(3.04518436 -0.17504059 0.00000000)
		(3.06388827 -0.17161620 0.00000000)
		(3.08259218 -0.16917020 0.00000000)
		(3.10129609 -0.16770260 0.00000000)
		(3.12000000 -0.16721340 0.00000000)
		(3.14000000 -0.16721340 0.00000000)
		(3.16000000 -0.16721340 0.00000000)
		(3.18000000 -0.16721340 0.00000000)
		(3.20000000 -0.16721340 0.00000000)
		(3.22000000 -0.16721340 0.00000000)
		(3.24000000 -0.16721340 0.00000000)
		(3.26000000 -0.16721340 0.00000000)
		(3.28000000 -0.16721340 0.00000000)
		(3.30000000 -0.16721340 0.00000000)
		(3.32000000 -0.16721340 0.00000000)
		(3.34000000 -0.16721340 0.00000000)
		(3.36000000 -0.16721340 0.00000000)
		(3.38000000 -0.16721340 0.00000000)
		(3.40000000 -0.16721340 0.00000000)
		(3.42000000 -0.16721340 0.00000000)
		(3.44000000 -0.16721340 0.00000000)
		(3.46000000 -0.16721340 0.00000000)
		(3.48000000 -0.16721340 0.00000000)
		(3.50000000 -0.16721340 0.00000000)
		(3.52000000 -0.16721340 0.00000000)
		(3.54000000 -0.16721340 0.00000000)
		(3.56000000 -0.16721340 0.00000000)
		(3.58000000 -0.16721340 0.00000000)
		(3.60000000 -0.16721340 0.00000000)
		(3.62000000 -0.16721340 0.00000000)
		(3.64000000 -0.16721340 0.00000000)
		(3.66000000 -0.16721340 0.00000000)
		(3.68000000 -0.16721340 0.00000000)
		(3.70000000 -0.16721340 0.00000000)
		(3.72000000 -0.16721340 0.00000000)
		(3.74000000 -0.16721340 0.00000000)
		(3.76000000 -0.16721340 0.00000000)
		(3.78000000 -0.16721340 0.00000000)
		(3.80000000 -0.16721340 0.00000000)
		(3.82000000 -0.16721340 0.00000000)
		(3.84000000 -0.16721340 0.00000000)
		(3.86000000 -0.16721340 0.00000000)
		(3.88000000 -0.16721340 0.00000000)
		(3.90000000 -0.16721340 0.00000000)
		(3.92000000 -0.16721340 0.00000000)
		(3.94000000 -0.16721340 0.00000000)
		(3.96000000 -0.16721340 0.00000000)
		(3.98000000 -0.16721340 0.00000000)
		(4.00000000 -0.16721340 0.00000000)
	)
	polyLine 4 5
	(
		(-1.00000000 -0.21473373 0.10000000)
		(-0.98000000 -0.21473373 0.10000000)
		(-0.96000000 -0.21473373 0.10000000)
		(-0.94000000 -0.21473373 0.10000000)
		(-0.92000000 -0.21473373 0.10000000)
		(-0.90000000 -0.21473373 0.10000000)
		(-0.88000000 -0.21473373 0.10000000)
		(-0.86000000 -0.21473373 0.10000000)
		(-0.84000000 -0.21473373 0.10000000)
		(-0.82000000 -0.21473373 0.10000000)
		(-0.80000000 -0.21473373 0.10000000)
		(-0.78000000 -0.21473373 0.10000000)
		(-0.76000000 -0.21473373 0.10000000)
		(-0.74000000 -0.21473373 0.10000000)
		(-0.72000000 -0.21473373 0.10000000)
		(-0.70000000 -0.21473373 0.10000000)
		(-0.68000000 -0.21473373 0.10000000)
		(-0.66000000 -0.21473373 0.10000000)
		(-0.64000000 -0.21473373 0.10000000)
		(-0.62000000 -0.21473373 0.10000000)
		(-0.60000000 -0.21473373 0.10000000)
		(-0.58000000 -0.21473373 0.10000000)
		(-0.56000000 -0.21473373 0.10000000)
		(-0.54000000 -0.21473373 0.10000000)
		(-0.52000000 -0.21473373 0.10000000)
		(-0.50000000 -0.21473373 0.10000000)
		(-0.48000000 -0.21473373 0.10000000)
		(-0.46000000 -0.21473373 0.10000000)
		(-0.44000000 -0.21473373 0.10000000)
		(-0.42000000 -0.21473373 0.10000000)
		(-0.40000000 -0.21473373 0.10000000)
		(-0.38000000 -0.21473373 0.10000000)
		(-0.36000000 -0.21473373 0.10000000)
		(-0.34000000 -0.21473373 0.10000000)
		(-0.32000000 -0.21473373 0.10000000)
		(-0.30000000 -0.21473373 0.10000000)
		(-0.28000000 -0.21473373 0.10000000)
		(-0.26000000 -0.21473373 0.10000000)
		(-0.24000000 -0.21473373 0.10000000)
		(-0.22000000 -0.21473373 0.10000000)
		(-0.20000000 -0.21473373 0.10000000)
		(-0.18000000 -0.21473373 0.10000000)
		(-0.16000000 -0.21473373 0.10000000)
		(-0.14000000 -0.21473373 0.10000000)
		(-0.12000000 -0.21473373 0.10000000)
		(-0.10000000 -0.21473373 0.10000000)
		(-0.08162011 -0.21505900 0.10000000)
		(-0.06324022 -0.21603482 0.10000000)
		(-0.04486034 -0.21766117 0.10000000)
		(-0.02648045 -0.21993807 0.10000000)
		(-0.00810056 -0.22286552 0.10000000)
		(0.01027933 -0.22644350 0.10000000)
		(0.02865922 -0.23067203 0.10000000)
		(0.04703911 -0.23555111 0.10000000)
		(0.06541899 -0.24108072 0.10000000)
		(0.08379888 -0.24726088 0.10000000)
		(0.10055866 -0.24938290 0.10000000)
		(0.11731844 -0.24999276 0.10000000)
		(0.13407821 -0.24908676 0.10000000)
		(0.15083799 -0.24667039 0.10000000)
		(0.16759777 -0.24275831 0.10000000)
		(0.18435754 -0.23737423 0.10000000)
		(0.20111732 -0.23055081 0.10000000)
		(0.21787709 -0.22232942 0.10000000)
		(0.23463687 -0.21275991 0.10000000)
		(0.25139665 -0.20190031 0.10000000)
		(0.26815642 -0.18981646 0.10000000)
		(0.28491620 -0.17658164 0.10000000)
		(0.30167598 -0.16227609 0.10000000)
		(0.31843575 -0.14698657 0.10000000)
		(0.33519553 -0.13080577 0.10000000)
		(0.35195531 -0.11383183 0.10000000)
		(0.36871508 -0.09616764 0.10000000)
		(0.38547486 -0.07792034 0.10000000)
		(0.40223464 -0.05920055 0.10000000)
		(0.41899441 -0.04012180 0.10000000)
		(0.43575419 -0.02079976 0.10000000)
		(0.45251397 -0.00135161 0.10000000)
		(0.46927374 0.01810475 0.10000000)
		(0.48603352 0.03745132 0.10000000)
		(0.50279330 0.05657080 0.10000000)
		(0.51955307 0.07534726 0.10000000)
		(0.53631285 0.09366685 0.10000000)
		(0.55307263 0.11141847 0.10000000)
		(0.56983240 0.12849449 0.10000000)
		(0.58659218 0.14479138 0.10000000)
		(0.60335196 0.16021030 0.10000000)
		(0.62011173 0.17465778 0.10000000)
		(0.63687151 0.18804619 0.10000000)
		(0.65363128 0.20029437 0.10000000)
		(0.67039106 0.21132804 0.10000000)
		(0.68715084 0.22108029 0.10000000)
		(0.70391061 0.22949200 0.10000000)
		(0.72067039 0.23651216 0.10000000)
		(0.73743017 0.24209821 0.10000000)
		(0.75418994 0.24621626 0.10000000)
		(0.77094972 0.24884135 0.10000000)
		(0.78770950 0.24995757 0.10000000)
		(0.80446927 0.24955814 0.10000000)
		(0.82122905 0.24764548 0.10000000)
		(0.83798883 0.24423120 0.10000000)
		(0.85474860 0.23933599 0.10000000)
		(0.87150838 0.23298955 0.10000000)
		(0.88826816 0.22523034 0.10000000)
		(0.90502793 0.21610543 0.10000000)
		(0.92178771 0.20567014 0.10000000)
		(0.93854749 0.19398774 0.10000000)
		(0.95530726 0.18112908 0.10000000)
		(0.97206704 0.16717212 0.10000000)
		(0.98882682 0.15220149 0.10000000)
		(1.00558659 0.13630797 0.10000000)
		(1.02234637 0.11958793 0.10000000)
		(1.03910615 0.10214276 0.10000000)
		(1.05586592 0.08407823 0.10000000)
		(1.07262570 0.06550389 0.10000000)
		(1.08938547 0.04653235 0.10000000)
		(1.10614525 0.02727867 0.10000000)
		(1.12290503 0.00785957 0.10000000)
		(1.13966480 -0.01160718 0.10000000)
		(1.15642458 -0.03100355 0.10000000)
		(1.17318436 -0.05021193 0.10000000)
		(1.18994413 -0.06911585 0.10000000)
		(1.20670391 -0.08760067 0.10000000)
		(1.22346369 -0.10555431 0.10000000)
		(1.24022346 -0.12286791 0.10000000)
		(1.25698324 -0.13943650 0.10000000)
		(1.27374302 -0.15515959 0.10000000)
		(1.29050279 -0.16994185 0.10000000)
		(1.30726257 -0.18369365 0.10000000)
		(1.32402235 -0.19633161 0.10000000)
		(1.34078212 -0.20777908 0.10000000)
		(1.35754190 -0.21796667 0.10000000)
		(1.37430168 -0.22683259 0.10000000)
		(1.39106145 -0.23432308 0.10000000)
		(1.40782123 -0.24039273 0.10000000)
		(1.42458101 -0.24500473 0.10000000)
		(1.44134078 -0.24813112 0.10000000)
		(1.45810056 -0.24975293 0.10000000)
		(1.47486034 -0.24986034 0.10000000)
		(1.49162011 -0.24845270 0.10000000)
		(1.50837989 -0.24553853 0.10000000)
		(1.52513966 -0.24113551 0.10000000)
		(1.54189944 -0.23527034 0.10000000)
		(1.55865922 -0.22797859 0.10000000)
		(1.57541899 -0.21930445 0.10000000)
		(1.59217877 -0.20930054 0.10000000)
		(1.60893855 -0.19802752 0.10000000)
		(1.62569832 -0.18555373 0.10000000)
		(1.64245810 -0.17195481 0.10000000)
		(1.65921788 -0.15731323 0.10000000)
		(1.67597765 -0.14171776 0.10000000)
		(1.69273743 -0.12526297 0.10000000)
		(1.70949721 -0.10804864 0.10000000)
		(1.72625698 -0.09017913 0.10000000)
		(1.74301676 -0.07176282 0.10000000)
		(1.75977654 -0.05291137 0.10000000)
		(1.77653631 -0.03373908 0.10000000)
		(1.79329609 -0.01436221 0.10000000)
		(1.81005587 0.00510175 0.10000000)
		(1.82681564 0.02453477 0.10000000)
		(1.84357542 0.04381902 0.10000000)
		(1.86033520 0.06283758 0.10000000)
		(1.87709497 0.08147510 0.10000000)
		(1.89385475 0.09961860 0.10000000)
		(1.91061453 0.11715804 0.10000000)
		(1.92737430 0.13398709 0.10000000)
		(1.94413408 0.15000369 0.10000000)
		(1.96089385 0.16511072 0.10000000)
		(1.97765363 0.17921659 0.10000000)
		(1.99441341 0.19223576 0.10000000)
		(2.01117318 0.20408928 0.10000000)
		(2.02793296 0.21470529 0.10000000)
		(2.04469274 0.22401940 0.10000000)
		(2.06145251 0.23197515 0.10000000)
		(2.07821229 0.23852429 0.10000000)
		(2.09497207 0.24362711 0.10000000)
		(2.11173184 0.24725268 0.10000000)
		(2.12849162 0.24937899 0.10000000)
		(2.14525140 0.24999317 0.10000000)
		(2.16201117 0.24909149 0.10000000)
		(2.17877095 0.24667941 0.10000000)
		(2.19553073 0.24277157 0.10000000)
		(2.21229050 0.23739165 0.10000000)
		(2.22905028 0.23057228 0.10000000)
		(2.24581006 0.22235481 0.10000000)
		(2.26256983 0.21278907 0.10000000)
		(2.27932961 0.20193305 0.10000000)
		(2.29608939 0.18985260 0.10000000)
		(2.31284916 0.17662095 0.10000000)
		(2.32960894 0.16231833 0.10000000)
		(2.34636872 0.14703149 0.10000000)
		(2.36312849 0.13085310 0.10000000)
		(2.37988827 0.11388127 0.10000000)
		(2.39664804 0.09621890 0.10000000)
		(2.41340782 0.07797310 0.10000000)
		(2.43016760 0.05925451 0.10000000)
		(2.44692737 0.04017661 0.10000000)
		(2.46368715 0.02085511 0.10000000)
		(2.48044693 0.00140714 0.10000000)
		(2.49720670 -0.01804936 0.10000000)
		(2.51396648 -0.03739641 0.10000000)
		(2.53072626 -0.05651671 0.10000000)
		(2.54748603 -0.07529431 0.10000000)
		(2.56424581 -0.09361535 0.10000000)
		(2.58100559 -0.11136875 0.10000000)
		(2.59776536 -0.12844685 0.10000000)
		(2.61452514 -0.14474610 0.10000000)
		(2.63128492 -0.16016767 0.10000000)
		(2.64804469 -0.17461804 0.10000000)
		(2.66480447 -0.18800959 0.10000000)
		(2.68156425 -0.20026113 0.10000000)
		(2.69832402 -0.21129836 0.10000000)
		(2.71508380 -0.22105436 0.10000000)
		(2.73184358 -0.22946997 0.10000000)
		(2.74860335 -0.23649416 0.10000000)
		(2.76536313 -0.24208435 0.10000000)
		(2.78212291 -0.24620663 0.10000000)
		(2.79888268 -0.24883600 0.10000000)
		(2.81564246 -0.24995654 0.10000000)
		(2.83240223 -0.24956143 0.10000000)
		(2.84916201 -0.24765308 0.10000000)
		(2.86592179 -0.24424305 0.10000000)
		(2.88268156 -0.23935204 0.10000000)
		(2.89944134 -0.23300968 0.10000000)
		(2.91620112 -0.22525444 0.10000000)
		(2.93296089 -0.21613335 0.10000000)
		(2.95166480 -0.20683856 0.10000000)
		(2.97036872 -0.19852217 0.10000000)
		(2.98907263 -0.19118418 0.10000000)
		(3.00777654 -0.18482458 0.10000000)
		(3.02648045 -0.17944339 0.10000000)
		(3.04518436 -0.17504059 0.10000000)
		(3.06388827 -0.17161620 0.10000000)
		(3.08259218 -0.16917020 0.10000000)
		(3.10129609 -0.16770260 0.10000000)
		(3.12000000 -0.16721340 0.10000000)
		(3.14000000 -0.16721340 0.10000000)
		(3.16000000 -0.16721340 0.10000000)
		(3.18000000 -0.16721340 0.10000000)
		(3.20000000 -0.16721340 0.10000000)
		(3.22000000 -0.16721340 0.10000000)
		(3.24000000 -0.16721340 0.10000000)
		(3.26000000 -0.16721340 0.10000000)
		(3.28000000 -0.16721340 0.10000000)
		(3.30000000 -0.16721340 0.10000000)
		(3.32000000 -0.16721340 0.10000000)
		(3.34000000 -0.16721340 0.10000000)
		(3.36000000 -0.16721340 0.10000000)
		(3.38000000 -0.16721340 0.10000000)
		(3.40000000 -0.16721340 0.10000000)
		(3.42000000 -0.16721340 0.10000000)
		(3.44000000 -0.16721340 0.10000000)
		(3.46000000 -0.16721340 0.10000000)
		(3.48000000 -0.16721340 0.10000000)
		(3.50000000 -0.16721340 0.10000000)
		(3.52000000 -0.16721340 0.10000000)
		(3.54000000 -0.16721340 0.10000000)
		(3.56000000 -0.16721340 0.10000000)
		(3.58000000 -0.16721340 0.10000000)
		(3.60000000 -0.16721340 0.10000000)
		(3.62000000 -0.16721340 0.10000000)
		(3.64000000 -0.16721340 0.10000000)
		(3.66000000 -0.16721340 0.10000000)
		(3.68000000 -0.16721340 0.10000000)
		(3.70000000 -0.16721340 0.10000000)
		(3.72000000 -0.16721340 0.10000000)
		(3.74000000 -0.16721340 0.10000000)
		(3.76000000 -0.16721340 0.10000000)
		(3.78000000 -0.16721340 0.10000000)
		(3.80000000 -0.16721340 0.10000000)
		(3.82000000 -0.16721340 0.10000000)
		(3.84000000 -0.16721340 0.10000000)
		(3.86000000 -0.16721340 0.10000000)
		(3.88000000 -0.16721340 0.10000000)
		(3.90000000 -0.16721340 0.10000000)
		(3.92000000 -0.16721340 0.10000000)
		(3.94000000 -0.16721340 0.10000000)
		(3.96000000 -0.16721340 0.10000000)
		(3.98000000 -0.16721340 0.10000000)
		(4.00000000 -0.16721340 0.10000000)
	)
	polyLine 3 2
	(
		(-1.00000000 0.28526627 0.00000000)
		(-0.98000000 0.28308295 0.00000000)
		(-0.96000000 0.28089963 0.00000000)
		(-0.94000000 0.27871631 0.00000000)
		(-0.92000000 0.27653299 0.00000000)
		(-0.90000000 0.27434967 0.00000000)
		(-0.88000000 0.27216635 0.00000000)
		(-0.86000000 0.26998303 0.00000000)
		(-0.84000000 0.26779971 0.00000000)
		(-0.82000000 0.26561639 0.00000000)
		(-0.80000000 0.26343306 0.00000000)
		(-0.78000000 0.26124974 0.00000000)
		(-0.76000000 0.25906642 0.00000000)
		(-0.74000000 0.25688310 0.00000000)
		(-0.72000000 0.25469978 0.00000000)
		(-0.70000000 0.25251646 0.00000000)
		(-0.68000000 0.25033314 0.00000000)
		(-0.66000000 0.24814982 0.00000000)
		(-0.64000000 0.24596650 0.00000000)
		(-0.62000000 0.24378318 0.00000000)
		(-0.60000000 0.24159986 0.00000000)
		(-0.58000000 0.23941654 0.00000000)
		(-0.56000000 0.23723322 0.00000000)
		(-0.54000000 0.23504990 0.00000000)
		(-0.52000000 0.23286658 0.00000000)
		(-0.50000000 0.23068326 0.00000000)
		(-0.48000000 0.22849994 0.00000000)
		(-0.46000000 0.22631662 0.00000000)
		(-0.44000000 0.22413330 0.00000000)
		(-0.42000000 0.22194997 0.00000000)
		(-0.40000000 0.21976665 0.00000000)
		(-0.38000000 0.21758333 0.00000000)
		(-0.36000000 0.21540001 0.00000000)
		(-0.34000000 0.21321669 0.00000000)
		(-0.32000000 0.21103337 0.00000000)
		(-0.30000000 0.20885005 0.00000000)
		(-0.28000000 0.20666673 0.00000000)
		(-0.26000000 0.20448341 0.00000000)
		(-0.24000000 0.20230009 0.00000000)
		(-0.22000000 0.20011677 0.00000000)
		(-0.20000000 0.19793345 0.00000000)
		(-0.18000000 0.19575013 0.00000000)
		(-0.16000000 0.19356681 0.00000000)
		(-0.14000000 0.19138349 0.00000000)
		(-0.12000000 0.18920017 0.00000000)
		(-0.10000000 0.18701685 0.00000000)
		(-0.08162011 0.18581729 0.00000000)
		(-0.06324022 0.18360729 0.00000000)
		(-0.04486034 0.18038684 0.00000000)
		(-0.02648045 0.17615593 0.00000000)
		(-0.00810056 0.17091457 0.00000000)
		(0.01027933 0.16466277 0.00000000)
		(0.02865922 0.15740051 0.00000000)
		(0.04703911 0.14912780 0.00000000)
		(0.06541899 0.13984464 0.00000000)
		(0.08379888 0.12955103 0.00000000)
		(0.10055866 0.12637180 0.00000000)
		(0.11731844 0.12545810 0.00000000)
		(0.13407821 0.12681548 0.00000000)
		(0.15083799 0.13043571 0.00000000)
		(0.16759777 0.13629684 0.00000000)
		(0.18435754 0.14436331 0.00000000)
		(0.20111732 0.15458624 0.00000000)
		(0.21787709 0.16690361 0.00000000)
		(0.23463687 0.18124076 0.00000000)
		(0.25139665 0.19751074 0.00000000)
		(0.26815642 0.21561489 0.00000000)
		(0.28491620 0.23544345 0.00000000)
		(0.30167598 0.25687617 0.00000000)
		(0.31843575 0.27978311 0.00000000)
		(0.33519553 0.30402535 0.00000000)
		(0.35195531 0.32945591 0.00000000)
		(0.36871508 0.35592058 0.00000000)
		(0.38547486 0.38325889 0.00000000)
		(0.40223464 0.41130508 0.00000000)
		(0.41899441 0.43988908 0.00000000)
		(0.43575419 0.46883756 0.00000000)
		(0.45251397 0.49797501 0.00000000)
		(0.46927374 0.52712473 0.00000000)
		(0.48603352 0.55610998 0.00000000)
		(0.50279330 0.58475500 0.00000000)
		(0.51955307 0.61288610 0.00000000)
		(0.53631285 0.64033270 0.00000000)
		(0.55307263 0.66692838 0.00000000)
		(0.56983240 0.69251187 0.00000000)
		(0.58659218 0.71692804 0.00000000)
		(0.60335196 0.74002884 0.00000000)
		(0.62011173 0.76167420 0.00000000)
		(0.63687151 0.78173287 0.00000000)
		(0.65363128 0.80008322 0.00000000)
		(0.67039106 0.81661399 0.00000000)
		(0.68715084 0.83122492 0.00000000)
		(0.70391061 0.84382744 0.00000000)
		(0.72067039 0.85434512 0.00000000)
		(0.73743017 0.86271420 0.00000000)
		(0.75418994 0.86888391 0.00000000)
		(0.77094972 0.87281685 0.00000000)
		(0.78770950 0.87448917 0.00000000)
		(0.80446927 0.87389074 0.00000000)
		(0.82122905 0.87102518 0.00000000)
		(0.83798883 0.86590987 0.00000000)
		(0.85474860 0.85857582 0.00000000)
		(0.87150838 0.84906750 0.00000000)
		(0.88826816 0.83744258 0.00000000)
		(0.90502793 0.82377153 0.00000000)
		(0.92178771 0.80813726 0.00000000)
		(0.93854749 0.79063457 0.00000000)
		(0.95530726 0.77136957 0.00000000)
		(0.97206704 0.75045910 0.00000000)
		(0.98882682 0.72802994 0.00000000)
		(1.00558659 0.70421810 0.00000000)
		(1.02234637 0.67916796 0.00000000)
		(1.03910615 0.65303141 0.00000000)
		(1.05586592 0.62596693 0.00000000)
		(1.07262570 0.59813865 0.00000000)
		(1.08938547 0.56971529 0.00000000)
		(1.10614525 0.54086920 0.00000000)
		(1.12290503 0.51177529 0.00000000)
		(1.13966480 0.48260999 0.00000000)
		(1.15642458 0.45355013 0.00000000)
		(1.17318436 0.42477193 0.00000000)
		(1.18994413 0.39644988 0.00000000)
		(1.20670391 0.36875572 0.00000000)
		(1.22346369 0.34185737 0.00000000)
		(1.24022346 0.31591794 0.00000000)
		(1.25698324 0.29109471 0.00000000)
		(1.27374302 0.26753820 0.00000000)
		(1.29050279 0.24539125 0.00000000)
		(1.30726257 0.22478815 0.00000000)
		(1.32402235 0.20585383 0.00000000)
		(1.34078212 0.18870309 0.00000000)
		(1.35754190 0.17343994 0.00000000)
		(1.37430168 0.16015692 0.00000000)
		(1.39106145 0.14893458 0.00000000)
		(1.40782123 0.13984097 0.00000000)
		(1.42458101 0.13293122 0.00000000)
		(1.44134078 0.12824723 0.00000000)
		(1.45810056 0.12581741 0.00000000)
		(1.47486034 0.12565649 0.00000000)
		(1.49162011 0.12776544 0.00000000)
		(1.50837989 0.13213147 0.00000000)
		(1.52513966 0.13872812 0.00000000)
		(1.54189944 0.14751538 0.00000000)
		(1.55865922 0.15843998 0.00000000)
		(1.57541899 0.17143566 0.00000000)
		(1.59217877 0.18642362 0.00000000)
		(1.60893855 0.20331299 0.00000000)
		(1.62569832 0.22200136 0.00000000)
		(1.64245810 0.24237541 0.00000000)
		(1.65921788 0.26431159 0.00000000)
		(1.67597765 0.28767689 0.00000000)
		(1.69273743 0.31232964 0.00000000)
		(1.70949721 0.33812035 0.00000000)
		(1.72625698 0.36489263 0.00000000)
		(1.74301676 0.39248415 0.00000000)
		(1.75977654 0.42072761 0.00000000)
		(1.77653631 0.44945175 0.00000000)
		(1.79329609 0.47848238 0.00000000)
		(1.81005587 0.50764350 0.00000000)
		(1.82681564 0.53675827 0.00000000)
		(1.84357542 0.56565014 0.00000000)
		(1.86033520 0.59414395 0.00000000)
		(1.87709497 0.62206690 0.00000000)
		(1.89385475 0.64924968 0.00000000)
		(1.91061453 0.67552747 0.00000000)
		(1.92737430 0.70074093 0.00000000)
		(1.94413408 0.72473717 0.00000000)
		(1.96089385 0.74737070 0.00000000)
		(1.97765363 0.76850427 0.00000000)
		(1.99441341 0.78800973 0.00000000)
		(2.01117318 0.80576881 0.00000000)
		(2.02793296 0.82167382 0.00000000)
		(2.04469274 0.83562833 0.00000000)
		(2.06145251 0.84754772 0.00000000)
		(2.07821229 0.85735972 0.00000000)
		(2.09497207 0.86500482 0.00000000)
		(2.11173184 0.87043668 0.00000000)
		(2.12849162 0.87362235 0.00000000)
		(2.14525140 0.87454252 0.00000000)
		(2.16201117 0.87319161 0.00000000)
		(2.17877095 0.86957781 0.00000000)
		(2.19553073 0.86372304 0.00000000)
		(2.21229050 0.85566278 0.00000000)
		(2.22905028 0.84544593 0.00000000)
		(2.24581006 0.83313443 0.00000000)
		(2.26256983 0.81880292 0.00000000)
		(2.27932961 0.80253832 0.00000000)
		(2.29608939 0.78443925 0.00000000)
		(2.31284916 0.76461544 0.00000000)
		(2.32960894 0.74318711 0.00000000)
		(2.34636872 0.72028419 0.00000000)
		(2.36312849 0.69604555 0.00000000)
		(2.37988827 0.67061817 0.00000000)
		(2.39664804 0.64415622 0.00000000)
		(2.41340782 0.61682016 0.00000000)
		(2.43016760 0.58877575 0.00000000)
		(2.44692737 0.56019305 0.00000000)
		(2.46368715 0.53124535 0.00000000)