/*--------------------------------*- C++ -*----------------------------------*\\
/*--------------------------------*- C++ -*----------------------------------*\\
| =========                 |                                                 |
| \\\\      /  F ield         | OpenFOAM: The Open Source CFD Toolbox           |
|  \\\\    /   O peration     | Version:  v2012                                 |
|   \\\\  /    A nd           | Website:  www.openfoam.com                      |
|    \\\\/     M anipulation  |                                                 |
\\*---------------------------------------------------------------------------*/
FoamFile
{
    version     2.0;
    format      ascii;
    class       dictionary;
    object      blockMeshDict;
}
// * * * * * * * * * * * * * * * * * * * * * * * * * * * * * * * * * * * * * //

scale   0.01;

xmin -1;
xmax 5;
ymin 0;
ymax 0.5;
zmin 0;
zmax 0.1;

vertices
(
    (-1.00000000 0.04110384 0.00000000)
    (4.00000000 0.24146541 0.00000000)
    (4.00000000 0.74146541 0.00000000)
    (-1.00000000 0.54110384 0.00000000)
    (-1.00000000 0.04110384 0.10000000)
    (4.00000000 0.24146541 0.10000000)
    (4.00000000 0.74146541 0.10000000)
    (-1.00000000 0.54110384 0.10000000)
);

blocks
(
    hex (0 1 2 3 4 5 6 7) (200 20 1) simpleGrading (1 1 1)
);

edges
(
	polyLine 0 1
	(
		(-1.00000000 0.04110384 0.00000000)
		(-0.98000000 0.04110384 0.00000000)
		(-0.96000000 0.04110384 0.00000000)
		(-0.94000000 0.04110384 0.00000000)
		(-0.92000000 0.04110384 0.00000000)
		(-0.90000000 0.04110384 0.00000000)
		(-0.88000000 0.04110384 0.00000000)
		(-0.86000000 0.04110384 0.00000000)
		(-0.84000000 0.04110384 0.00000000)
		(-0.82000000 0.04110384 0.00000000)
		(-0.80000000 0.04110384 0.00000000)
		(-0.78000000 0.04110384 0.00000000)
		(-0.76000000 0.04110384 0.00000000)
		(-0.74000000 0.04110384 0.00000000)
		(-0.72000000 0.04110384 0.00000000)
		(-0.70000000 0.04110384 0.00000000)
		(-0.68000000 0.04110384 0.00000000)
		(-0.66000000 0.04110384 0.00000000)
		(-0.64000000 0.04110384 0.00000000)
		(-0.62000000 0.04110384 0.00000000)
		(-0.60000000 0.04110384 0.00000000)
		(-0.58000000 0.04110384 0.00000000)
		(-0.56000000 0.04110384 0.00000000)
		(-0.54000000 0.04110384 0.00000000)
		(-0.52000000 0.04110384 0.00000000)
		(-0.50000000 0.04110384 0.00000000)
		(-0.48000000 0.04110384 0.00000000)
		(-0.46000000 0.04110384 0.00000000)
		(-0.44000000 0.04110384 0.00000000)
		(-0.42000000 0.04110384 0.00000000)
		(-0.40000000 0.04110384 0.00000000)
		(-0.38000000 0.04110384 0.00000000)
		(-0.36000000 0.04110384 0.00000000)
		(-0.34000000 0.04110384 0.00000000)
		(-0.32000000 0.04110384 0.00000000)
		(-0.30000000 0.04110384 0.00000000)
		(-0.28000000 0.04110384 0.00000000)
		(-0.26000000 0.04110384 0.00000000)
		(-0.24000000 0.04110384 0.00000000)
		(-0.22000000 0.04110384 0.00000000)
		(-0.20000000 0.04110384 0.00000000)
		(-0.18000000 0.04110384 0.00000000)
		(-0.16000000 0.04110384 0.00000000)
		(-0.14000000 0.04110384 0.00000000)
		(-0.12000000 0.04110384 0.00000000)
		(-0.10000000 0.04110384 0.00000000)
		(-0.08162011 0.03988408 0.00000000)
		(-0.06324022 0.03622480 0.00000000)
		(-0.04486034 0.03012599 0.00000000)
		(-0.02648045 0.02158765 0.00000000)
		(-0.00810056 0.01060979 0.00000000)
		(0.01027933 -0.00280759 0.00000000)
		(0.02865922 -0.01866450 0.00000000)
		(0.04703911 -0.03696093 0.00000000)
		(0.06541899 -0.05769689 0.00000000)
		(0.08379888 -0.08087237 0.00000000)
		(0.10055866 -0.10383829 0.00000000)
		(0.11731844 -0.12578904 0.00000000)
		(0.13407821 -0.14651002 0.00000000)
		(0.15083799 -0.16579867 0.00000000)
		(0.16759777 -0.18346639 0.00000000)
		(0.18435754 -0.19934048 0.00000000)
		(0.20111732 -0.21326573 0.00000000)
		(0.21787709 -0.22510601 0.00000000)
		(0.23463687 -0.23474556 0.00000000)
		(0.25139665 -0.24209014 0.00000000)
		(0.26815642 -0.24706795 0.00000000)
		(0.28491620 -0.24963032 0.00000000)
		(0.30167598 -0.24975221 0.00000000)
		(0.31843575 -0.24743241 0.00000000)
		(0.33519553 -0.24269362 0.00000000)
		(0.35195531 -0.23558215 0.00000000)
		(0.36871508 -0.22616753 0.00000000)
		(0.38547486 -0.21454181 0.00000000)
		(0.40223464 -0.20081864 0.00000000)
		(0.41899441 -0.18513218 0.00000000)
		(0.43575419 -0.16763580 0.00000000)
		(0.45251397 -0.14850054 0.00000000)
		(0.46927374 -0.12791348 0.00000000)
		(0.48603352 -0.10607589 0.00000000)
		(0.50279330 -0.08320125 0.00000000)
		(0.51955307 -0.05951320 0.00000000)
		(0.53631285 -0.03524333 0.00000000)
		(0.55307263 -0.01062890 0.00000000)
		(0.56983240 0.01408943 0.00000000)
		(0.58659218 0.03867003 0.00000000)
		(0.60335196 0.06287257 0.00000000)
		(0.62011173 0.08646044 0.00000000)
		(0.63687151 0.10920304 0.00000000)
		(0.65363128 0.13087802 0.00000000)
		(0.67039106 0.15127349 0.00000000)
		(0.68715084 0.17019005 0.00000000)
		(0.70391061 0.18744276 0.00000000)
		(0.72067039 0.20286295 0.00000000)
		(0.73743017 0.21629987 0.00000000)
		(0.75418994 0.22762216 0.00000000)
		(0.77094972 0.23671911 0.00000000)
		(0.78770950 0.24350181 0.00000000)
		(0.80446927 0.24790393 0.00000000)
		(0.82122905 0.24988244 0.00000000)
		(0.83798883 0.24941800 0.00000000)
		(0.85474860 0.24651515 0.00000000)
		(0.87150838 0.24120226 0.00000000)
		(0.88826816 0.23353128 0.00000000)
		(0.90502793 0.22357721 0.00000000)
		(0.92178771 0.21143735 0.00000000)
		(0.93854749 0.19723039 0.00000000)
		(0.95530726 0.18109523 0.00000000)
		(0.97206704 0.16318961 0.00000000)
		(0.98882682 0.14368858 0.00000000)
		(1.00558659 0.12278279 0.00000000)
		(1.02234637 0.10067663 0.00000000)
		(1.03910615 0.07758621 0.00000000)
		(1.05586592 0.05373728 0.00000000)
		(1.07262570 0.02936299 0.00000000)
		(1.08938547 0.00470163 0.00000000)
		(1.10614525 -0.02000569 0.00000000)
		(1.12290503 -0.04451743 0.00000000)
		(1.13966480 -0.06859395 0.00000000)
		(1.15642458 -0.09199986 0.00000000)
		(1.17318436 -0.11450635 0.00000000)
		(1.18994413 -0.13589337 0.00000000)
		(1.20670391 -0.15595185 0.00000000)
		(1.22346369 -0.17448567 0.00000000)
		(1.24022346 -0.19131366 0.00000000)
		(1.25698324 -0.20627128 0.00000000)
		(1.27374302 -0.21921231 0.00000000)
		(1.29050279 -0.23001023 0.00000000)
		(1.30726257 -0.23855948 0.00000000)
		(1.32402235 -0.24477647 0.00000000)
		(1.34078212 -0.24860043 0.00000000)
		(1.35754190 -0.24999397 0.00000000)
		(1.37430168 -0.24894346 0.00000000)
		(1.39106145 -0.24545918 0.00000000)
		(1.40782123 -0.23957520 0.00000000)
		(1.42458101 -0.23134902 0.00000000)
		(1.44134078 -0.22086109 0.00000000)
		(1.45810056 -0.20821392 0.00000000)
		(1.47486034 -0.19353118 0.00000000)
		(1.49162011 -0.17695639 0.00000000)
		(1.50837989 -0.15865160 0.00000000)
		(1.52513966 -0.13879577 0.00000000)
		(1.54189944 -0.11758302 0.00000000)
		(1.55865922 -0.09522073 0.00000000)
		(1.57541899 -0.07192752 0.00000000)
		(1.59217877 -0.04793112 0.00000000)
		(1.60893855 -0.02346612 0.00000000)
		(1.62569832 0.00122829 0.00000000)
		(1.64245810 0.02591069 0.00000000)
		(1.65921788 0.05033978 0.00000000)
		(1.67597765 0.07427673 0.00000000)
		(1.69273743 0.09748752 0.00000000)
		(1.70949721 0.11974523 0.00000000)
		(1.72625698 0.14083226 0.00000000)
		(1.74301676 0.16054245 0.00000000)
		(1.75977654 0.17868312 0.00000000)
		(1.77653631 0.19507691 0.00000000)
		(1.79329609 0.20956355 0.00000000)
		(1.81005587 0.22200141 0.00000000)
		(1.82681564 0.23226889 0.00000000)
		(1.84357542 0.24026562 0.00000000)
		(1.86033520 0.24591341 0.00000000)
		(1.87709497 0.24915705 0.00000000)
		(1.89385475 0.24996483 0.00000000)
		(1.91061453 0.24832885 0.00000000)
		(1.92737430 0.24426511 0.00000000)
		(1.94413408 0.23781333 0.00000000)
		(1.96089385 0.22903659 0.00000000)
		(1.97765363 0.21802070 0.00000000)
		(1.99441341 0.20487335 0.00000000)
		(2.01117318 0.18972307 0.00000000)
		(2.02793296 0.17271798 0.00000000)
		(2.04469274 0.15402433 0.00000000)
		(2.06145251 0.13382487 0.00000000)
		(2.07821229 0.11231709 0.00000000)
		(2.09497207 0.08971125 0.00000000)
		(2.11173184 0.06622836 0.00000000)
		(2.12849162 0.04209799 0.00000000)
		(2.14525140 0.01755605 0.00000000)
		(2.16201117 -0.00715752 0.00000000)
		(2.17877095 -0.03180112 0.00000000)
		(2.19553073 -0.05613381 0.00000000)
		(2.21229050 -0.07991772 0.00000000)
		(2.22905028 -0.10292032 0.00000000)
		(2.24581006 -0.12491673 0.00000000)
		(2.26256983 -0.14569191 0.00000000)
		(2.27932961 -0.16504273 0.00000000)
		(2.29608939 -0.18278004 0.00000000)
		(2.31284916 -0.19873041 0.00000000)
		(2.32960894 -0.21273791 0.00000000)
		(2.34636872 -0.22466560 0.00000000)
		(2.36312849 -0.23439687 0.00000000)
		(2.37988827 -0.24183657 0.00000000)
		(2.39664804 -0.24691198 0.00000000)
		(2.41340782 -0.24957349 0.00000000)
		(2.43016760 -0.24979505 0.00000000)
		(2.44692737 -0.24757452 0.00000000)
		(2.46368715 -0.24293360 0.00000000)
		(2.48044693 -0.23591766 0.00000000)
		(2.49720670 -0.22659530 0.00000000)
		(2.51396648 -0.21505764 0.00000000)
		(2.53072626 -0.20141750 0.00000000)
		(2.54748603 -0.18580821 0.00000000)
		(2.56424581 -0.16838239 0.00000000)
		(2.58100559 -0.14931039 0.00000000)
		(2.59776536 -0.12877868 0.00000000)
		(2.61452514 -0.10698797 0.00000000)
		(2.63128492 -0.08415130 0.00000000)
		(2.64804469 -0.06049193 0.00000000)
		(2.66480447 -0.03624117 0.00000000)
		(2.68156425 -0.01163610 0.00000000)
		(2.69832402 0.01308272 0.00000000)
		(2.71508380 0.03767365 0.00000000)
		(2.73184358 0.06189626 0.00000000)
		(2.74860335 0.08551375 0.00000000)
		(2.76536313 0.10829522 0.00000000)
		(2.78212291 0.13001795 0.00000000)
		(2.79888268 0.15046958 0.00000000)
		(2.81564246 0.16945015 0.00000000)
		(2.83240223 0.18677411 0.00000000)
		(2.84916201 0.20227209 0.00000000)
		(2.86592179 0.21579257 0.00000000)
		(2.88268156 0.22720338 0.00000000)
		(2.89944134 0.23639296 0.00000000)
		(2.91620112 0.24327146 0.00000000)
		(2.93296089 0.24777163 0.00000000)
		(2.95166480 0.24657345 0.00000000)
		(2.97036872 0.24550139 0.00000000)
		(2.98907263 0.24455546 0.00000000)
		(3.00777654 0.24373565 0.00000000)
		(3.02648045 0.24304196 0.00000000)
		(3.04518436 0.24247440 0.00000000)
		(3.06388827 0.24203297 0.00000000)
		(3.08259218 0.24171766 0.00000000)
		(3.10129609 0.24152847 0.00000000)
		(3.12000000 0.24146541 0.00000000)
		(3.14000000 0.24146541 0.00000000)
		(3.16000000 0.24146541 0.00000000)
		(3.18000000 0.24146541 0.00000000)
		(3.20000000 0.24146541 0.00000000)
		(3.22000000 0.24146541 0.00000000)
		(3.24000000 0.24146541 0.00000000)
		(3.26000000 0.24146541 0.00000000)
		(3.28000000 0.24146541 0.00000000)
		(3.30000000 0.24146541 0.00000000)
		(3.32000000 0.24146541 0.00000000)
		(3.34000000 0.24146541 0.00000000)
		(3.36000000 0.24146541 0.00000000)
		(3.38000000 0.24146541 0.00000000)
		(3.40000000 0.24146541 0.00000000)
		(3.42000000 0.24146541 0.00000000)
		(3.44000000 0.24146541 0.00000000)
		(3.46000000 0.24146541 0.00000000)
		(3.48000000 0.24146541 0.00000000)
		(3.50000000 0.24146541 0.00000000)
		(3.52000000 0.24146541 0.00000000)
		(3.54000000 0.24146541 0.00000000)
		(3.56000000 0.24146541 0.00000000)
		(3.58000000 0.24146541 0.00000000)
		(3.60000000 0.24146541 0.00000000)
		(3.62000000 0.24146541 0.00000000)
		(3.64000000 0.24146541 0.00000000)
		(3.66000000 0.24146541 0.00000000)
		(3.68000000 0.24146541 0.00000000)
		(3.70000000 0.24146541 0.00000000)
		(3.72000000 0.24146541 0.00000000)
		(3.74000000 0.24146541 0.00000000)
		(3.76000000 0.24146541 0.00000000)
		(3.78000000 0.24146541 0.00000000)
		(3.80000000 0.24146541 0.00000000)
		(3.82000000 0.24146541 0.00000000)
		(3.84000000 0.24146541 0.00000000)
		(3.86000000 0.24146541 0.00000000)
		(3.88000000 0.24146541 0.00000000)
		(3.90000000 0.24146541 0.00000000)
		(3.92000000 0.24146541 0.00000000)
		(3.94000000 0.24146541 0.00000000)
		(3.96000000 0.24146541 0.00000000)
		(3.98000000 0.24146541 0.00000000)
		(4.00000000 0.24146541 0.00000000)
	)
	polyLine 4 5
	(
		(-1.00000000 0.04110384 0.10000000)
		(-0.98000000 0.04110384 0.10000000)
		(-0.96000000 0.04110384 0.10000000)
		(-0.94000000 0.04110384 0.10000000)
		(-0.92000000 0.04110384 0.10000000)
		(-0.90000000 0.04110384 0.10000000)
		(-0.88000000 0.04110384 0.10000000)
		(-0.86000000 0.04110384 0.10000000)
		(-0.84000000 0.04110384 0.10000000)
		(-0.82000000 0.04110384 0.10000000)
		(-0.80000000 0.04110384 0.10000000)
		(-0.78000000 0.04110384 0.10000000)
		(-0.76000000 0.04110384 0.10000000)
		(-0.74000000 0.04110384 0.10000000)
		(-0.72000000 0.04110384 0.10000000)
		(-0.70000000 0.04110384 0.10000000)
		(-0.68000000 0.04110384 0.10000000)
		(-0.66000000 0.04110384 0.10000000)
		(-0.64000000 0.04110384 0.10000000)
		(-0.62000000 0.04110384 0.10000000)
		(-0.60000000 0.04110384 0.10000000)
		(-0.58000000 0.04110384 0.10000000)
		(-0.56000000 0.04110384 0.10000000)
		(-0.54000000 0.04110384 0.10000000)
		(-0.52000000 0.04110384 0.10000000)
		(-0.50000000 0.04110384 0.10000000)
		(-0.48000000 0.04110384 0.10000000)
		(-0.46000000 0.04110384 0.10000000)
		(-0.44000000 0.04110384 0.10000000)
		(-0.42000000 0.04110384 0.10000000)
		(-0.40000000 0.04110384 0.10000000)
		(-0.38000000 0.04110384 0.10000000)
		(-0.36000000 0.04110384 0.10000000)
		(-0.34000000 0.04110384 0.10000000)
		(-0.32000000 0.04110384 0.10000000)
		(-0.30000000 0.04110384 0.10000000)
		(-0.28000000 0.04110384 0.10000000)
		(-0.26000000 0.04110384 0.10000000)
		(-0.24000000 0.04110384 0.10000000)
		(-0.22000000 0.04110384 0.10000000)
		(-0.20000000 0.04110384 0.10000000)
		(-0.18000000 0.04110384 0.10000000)
		(-0.16000000 0.04110384 0.10000000)
		(-0.14000000 0.04110384 0.10000000)
		(-0.12000000 0.04110384 0.10000000)
		(-0.10000000 0.04110384 0.10000000)
		(-0.08162011 0.03988408 0.10000000)
		(-0.06324022 0.03622480 0.10000000)
		(-0.04486034 0.03012599 0.10000000)
		(-0.02648045 0.02158765 0.10000000)
		(-0.00810056 0.01060979 0.10000000)
		(0.01027933 -0.00280759 0.10000000)
		(0.02865922 -0.01866450 0.10000000)
		(0.04703911 -0.03696093 0.10000000)
		(0.06541899 -0.05769689 0.10000000)
		(0.08379888 -0.08087237 0.10000000)
		(0.10055866 -0.10383829 0.10000000)
		(0.11731844 -0.12578904 0.10000000)
		(0.13407821 -0.14651002 0.10000000)
		(0.15083799 -0.16579867 0.10000000)
		(0.16759777 -0.18346639 0.10000000)
		(0.18435754 -0.19934048 0.10000000)
		(0.20111732 -0.21326573 0.10000000)
		(0.21787709 -0.22510601 0.10000000)
		(0.23463687 -0.23474556 0.10000000)
		(0.25139665 -0.24209014 0.10000000)
		(0.26815642 -0.24706795 0.10000000)
		(0.28491620 -0.24963032 0.10000000)
		(0.30167598 -0.24975221 0.10000000)
		(0.31843575 -0.24743241 0.10000000)
		(0.33519553 -0.24269362 0.10000000)
		(0.35195531 -0.23558215 0.10000000)
		(0.36871508 -0.22616753 0.10000000)
		(0.38547486 -0.21454181 0.10000000)
		(0.40223464 -0.20081864 0.10000000)
		(0.41899441 -0.18513218 0.10000000)
		(0.43575419 -0.16763580 0.10000000)
		(0.45251397 -0.14850054 0.10000000)
		(0.46927374 -0.12791348 0.10000000)
		(0.48603352 -0.10607589 0.10000000)
		(0.50279330 -0.08320125 0.10000000)
		(0.51955307 -0.05951320 0.10000000)
		(0.53631285 -0.03524333 0.10000000)
		(0.55307263 -0.01062890 0.10000000)
		(0.56983240 0.01408943 0.10000000)
		(0.58659218 0.03867003 0.10000000)
		(0.60335196 0.06287257 0.10000000)
		(0.62011173 0.08646044 0.10000000)
		(0.63687151 0.10920304 0.10000000)
		(0.65363128 0.13087802 0.10000000)
		(0.67039106 0.15127349 0.10000000)
		(0.68715084 0.17019005 0.10000000)
		(0.70391061 0.18744276 0.10000000)
		(0.72067039 0.20286295 0.10000000)
		(0.73743017 0.21629987 0.10000000)
		(0.75418994 0.22762216 0.10000000)
		(0.77094972 0.23671911 0.10000000)
		(0.78770950 0.24350181 0.10000000)
		(0.80446927 0.24790393 0.10000000)
		(0.82122905 0.24988244 0.10000000)
		(0.83798883 0.24941800 0.10000000)
		(0.85474860 0.24651515 0.10000000)
		(0.87150838 0.24120226 0.10000000)
		(0.88826816 0.23353128 0.10000000)
		(0.90502793 0.22357721 0.10000000)
		(0.92178771 0.21143735 0.10000000)
		(0.93854749 0.19723039 0.10000000)
		(0.95530726 0.18109523 0.10000000)
		(0.97206704 0.16318961 0.10000000)
		(0.98882682 0.14368858 0.10000000)
		(1.00558659 0.12278279 0.10000000)
		(1.02234637 0.10067663 0.10000000)
		(1.03910615 0.07758621 0.10000000)
		(1.05586592 0.05373728 0.10000000)
		(1.07262570 0.02936299 0.10000000)
		(1.08938547 0.00470163 0.10000000)
		(1.10614525 -0.02000569 0.10000000)
		(1.12290503 -0.04451743 0.10000000)
		(1.13966480 -0.06859395 0.10000000)
		(1.15642458 -0.09199986 0.10000000)
		(1.17318436 -0.11450635 0.10000000)
		(1.18994413 -0.13589337 0.10000000)
		(1.20670391 -0.15595185 0.10000000)
		(1.22346369 -0.17448567 0.10000000)
		(1.24022346 -0.19131366 0.10000000)
		(1.25698324 -0.20627128 0.10000000)
		(1.27374302 -0.21921231 0.10000000)
		(1.29050279 -0.23001023 0.10000000)
		(1.30726257 -0.23855948 0.10000000)
		(1.32402235 -0.24477647 0.10000000)
		(1.34078212 -0.24860043 0.10000000)
		(1.35754190 -0.24999397 0.10000000)
		(1.37430168 -0.24894346 0.10000000)
		(1.39106145 -0.24545918 0.10000000)
		(1.40782123 -0.23957520 0.10000000)
		(1.42458101 -0.23134902 0.10000000)
		(1.44134078 -0.22086109 0.10000000)
		(1.45810056 -0.20821392 0.10000000)
		(1.47486034 -0.19353118 0.10000000)
		(1.49162011 -0.17695639 0.10000000)
		(1.50837989 -0.15865160 0.10000000)
		(1.52513966 -0.13879577 0.10000000)
		(1.54189944 -0.11758302 0.10000000)
		(1.55865922 -0.09522073 0.10000000)
		(1.57541899 -0.07192752 0.10000000)
		(1.59217877 -0.04793112 0.10000000)
		(1.60893855 -0.02346612 0.10000000)
		(1.62569832 0.00122829 0.10000000)
		(1.64245810 0.02591069 0.10000000)
		(1.65921788 0.05033978 0.10000000)
		(1.67597765 0.07427673 0.10000000)
		(1.69273743 0.09748752 0.10000000)
		(1.70949721 0.11974523 0.10000000)
		(1.72625698 0.14083226 0.10000000)
		(1.74301676 0.16054245 0.10000000)
		(1.75977654 0.17868312 0.10000000)
		(1.77653631 0.19507691 0.10000000)
		(1.79329609 0.20956355 0.10000000)
		(1.81005587 0.22200141 0.10000000)
		(1.82681564 0.23226889 0.10000000)
		(1.84357542 0.24026562 0.10000000)
		(1.86033520 0.24591341 0.10000000)
		(1.87709497 0.24915705 0.10000000)
		(1.89385475 0.24996483 0.10000000)
		(1.91061453 0.24832885 0.10000000)
		(1.92737430 0.24426511 0.10000000)
		(1.94413408 0.23781333 0.10000000)
		(1.96089385 0.22903659 0.10000000)
		(1.97765363 0.21802070 0.10000000)
		(1.99441341 0.20487335 0.10000000)
		(2.01117318 0.18972307 0.10000000)
		(2.02793296 0.17271798 0.10000000)
		(2.04469274 0.15402433 0.10000000)
		(2.06145251 0.13382487 0.10000000)
		(2.07821229 0.11231709 0.10000000)
		(2.09497207 0.08971125 0.10000000)
		(2.11173184 0.06622836 0.10000000)
		(2.12849162 0.04209799 0.10000000)
		(2.14525140 0.01755605 0.10000000)
		(2.16201117 -0.00715752 0.10000000)
		(2.17877095 -0.03180112 0.10000000)
		(2.19553073 -0.05613381 0.10000000)
		(2.21229050 -0.07991772 0.10000000)
		(2.22905028 -0.10292032 0.10000000)
		(2.24581006 -0.12491673 0.10000000)
		(2.26256983 -0.14569191 0.10000000)
		(2.27932961 -0.16504273 0.10000000)
		(2.29608939 -0.18278004 0.10000000)
		(2.31284916 -0.19873041 0.10000000)
		(2.32960894 -0.21273791 0.10000000)
		(2.34636872 -0.22466560 0.10000000)
		(2.36312849 -0.23439687 0.10000000)
		(2.37988827 -0.24183657 0.10000000)
		(2.39664804 -0.24691198 0.10000000)
		(2.41340782 -0.24957349 0.10000000)
		(2.43016760 -0.24979505 0.10000000)
		(2.44692737 -0.24757452 0.10000000)
		(2.46368715 -0.24293360 0.10000000)
		(2.48044693 -0.23591766 0.10000000)
		(2.49720670 -0.22659530 0.10000000)
		(2.51396648 -0.21505764 0.10000000)
		(2.53072626 -0.20141750 0.10000000)
		(2.54748603 -0.18580821 0.10000000)
		(2.56424581 -0.16838239 0.10000000)
		(2.58100559 -0.14931039 0.10000000)
		(2.59776536 -0.12877868 0.10000000)
		(2.61452514 -0.10698797 0.10000000)
		(2.63128492 -0.08415130 0.10000000)
		(2.64804469 -0.06049193 0.10000000)
		(2.66480447 -0.03624117 0.10000000)
		(2.68156425 -0.01163610 0.10000000)
		(2.69832402 0.01308272 0.10000000)
		(2.71508380 0.03767365 0.10000000)
		(2.73184358 0.06189626 0.10000000)
		(2.74860335 0.08551375 0.10000000)
		(2.76536313 0.10829522 0.10000000)
		(2.78212291 0.13001795 0.10000000)
		(2.79888268 0.15046958 0.10000000)
		(2.81564246 0.16945015 0.10000000)
		(2.83240223 0.18677411 0.10000000)
		(2.84916201 0.20227209 0.10000000)
		(2.86592179 0.21579257 0.10000000)
		(2.88268156 0.22720338 0.10000000)
		(2.89944134 0.23639296 0.10000000)
		(2.91620112 0.24327146 0.10000000)
		(2.93296089 0.24777163 0.10000000)
		(2.95166480 0.24657345 0.10000000)
		(2.97036872 0.24550139 0.10000000)
		(2.98907263 0.24455546 0.10000000)
		(3.00777654 0.24373565 0.10000000)
		(3.02648045 0.24304196 0.10000000)
		(3.04518436 0.24247440 0.10000000)
		(3.06388827 0.24203297 0.10000000)
		(3.08259218 0.24171766 0.10000000)
		(3.10129609 0.24152847 0.10000000)
		(3.12000000 0.24146541 0.10000000)
		(3.14000000 0.24146541 0.10000000)
		(3.16000000 0.24146541 0.10000000)
		(3.18000000 0.24146541 0.10000000)
		(3.20000000 0.24146541 0.10000000)
		(3.22000000 0.24146541 0.10000000)
		(3.24000000 0.24146541 0.10000000)
		(3.26000000 0.24146541 0.10000000)
		(3.28000000 0.24146541 0.10000000)
		(3.30000000 0.24146541 0.10000000)
		(3.32000000 0.24146541 0.10000000)
		(3.34000000 0.24146541 0.10000000)
		(3.36000000 0.24146541 0.10000000)
		(3.38000000 0.24146541 0.10000000)
		(3.40000000 0.24146541 0.10000000)
		(3.42000000 0.24146541 0.10000000)
		(3.44000000 0.24146541 0.10000000)
		(3.46000000 0.24146541 0.10000000)
		(3.48000000 0.24146541 0.10000000)
		(3.50000000 0.24146541 0.10000000)
		(3.52000000 0.24146541 0.10000000)
		(3.54000000 0.24146541 0.10000000)
		(3.56000000 0.24146541 0.10000000)
		(3.58000000 0.24146541 0.10000000)
		(3.60000000 0.24146541 0.10000000)
		(3.62000000 0.24146541 0.10000000)
		(3.64000000 0.24146541 0.10000000)
		(3.66000000 0.24146541 0.10000000)
		(3.68000000 0.24146541 0.10000000)
		(3.70000000 0.24146541 0.10000000)
		(3.72000000 0.24146541 0.10000000)
		(3.74000000 0.24146541 0.10000000)
		(3.76000000 0.24146541 0.10000000)
		(3.78000000 0.24146541 0.10000000)
		(3.80000000 0.24146541 0.10000000)
		(3.82000000 0.24146541 0.10000000)
		(3.84000000 0.24146541 0.10000000)
		(3.86000000 0.24146541 0.10000000)
		(3.88000000 0.24146541 0.10000000)
		(3.90000000 0.24146541 0.10000000)
		(3.92000000 0.24146541 0.10000000)
		(3.94000000 0.24146541 0.10000000)
		(3.96000000 0.24146541 0.10000000)
		(3.98000000 0.24146541 0.10000000)
		(4.00000000 0.24146541 0.10000000)
	)
	polyLine 3 2
	(
		(-1.00000000 0.54110384 0.00000000)
		(-0.98000000 0.54164107 0.00000000)
		(-0.96000000 0.54217829 0.00000000)
		(-0.94000000 0.54271551 0.00000000)
		(-0.92000000 0.54325273 0.00000000)
		(-0.90000000 0.54378996 0.00000000)
		(-0.88000000 0.54432718 0.00000000)
		(-0.86000000 0.54486440 0.00000000)
		(-0.84000000 0.54540162 0.00000000)
		(-0.82000000 0.54593885 0.00000000)
		(-0.80000000 0.54647607 0.00000000)
		(-0.78000000 0.54701329 0.00000000)
		(-0.76000000 0.54755051 0.00000000)
		(-0.74000000 0.54808773 0.00000000)
		(-0.72000000 0.54862496 0.00000000)
		(-0.70000000 0.54916218 0.00000000)
		(-0.68000000 0.54969940 0.00000000)
		(-0.66000000 0.55023662 0.00000000)
		(-0.64000000 0.55077385 0.00000000)
		(-0.62000000 0.55131107 0.00000000)
		(-0.60000000 0.55184829 0.00000000)
		(-0.58000000 0.55238551 0.00000000)
		(-0.56000000 0.55292274 0.00000000)
		(-0.54000000 0.55345996 0.00000000)
		(-0.52000000 0.55399718 0.00000000)
		(-0.50000000 0.55453440 0.00000000)
		(-0.48000000 0.55507163 0.00000000)
		(-0.46000000 0.55560885 0.00000000)
		(-0.44000000 0.55614607 0.00000000)
		(-0.42000000 0.55668329 0.00000000)
		(-0.40000000 0.55722051 0.00000000)
		(-0.38000000 0.55775774 0.00000000)
		(-0.36000000 0.55829496 0.00000000)
		(-0.34000000 0.55883218 0.00000000)
		(-0.32000000 0.55936940 0.00000000)
		(-0.30000000 0.55990663 0.00000000)
		(-0.28000000 0.56044385 0.00000000)
		(-0.26000000 0.56098107 0.00000000)
		(-0.24000000 0.56151829 0.00000000)
		(-0.22000000 0.56205552 0.00000000)
		(-0.20000000 0.56259274 0.00000000)
		(-0.18000000 0.56312996 0.00000000)
		(-0.16000000 0.56366718 0.00000000)
		(-0.14000000 0.56420441 0.00000000)
		(-0.12000000 0.56474163 0.00000000)
		(-0.10000000 0.56527885 0.00000000)
		(-0.08162011 0.56699396 0.00000000)
		(-0.06324022 0.56392919 0.00000000)
		(-0.04486034 0.55608452 0.00000000)
		(-0.02648045 0.54345997 0.00000000)
		(-0.00810056 0.52605553 0.00000000)
		(0.01027933 0.50387120 0.00000000)
		(0.02865922 0.47690699 0.00000000)
		(0.04703911 0.44516288 0.00000000)
		(0.06541899 0.40863889 0.00000000)
		(0.08379888 0.36733501 0.00000000)
		(0.10055866 0.32966117 0.00000000)
		(0.11731844 0.29365263 0.00000000)
		(0.13407821 0.25966142 0.00000000)
		(0.15083799 0.22801986 0.00000000)
		(0.16759777 0.19903729 0.00000000)
		(0.18435754 0.17299706 0.00000000)
		(0.20111732 0.15015374 0.00000000)
		(0.21787709 0.13073066 0.00000000)
		(0.23463687 0.11491771 0.00000000)
		(0.25139665 0.10286948 0.00000000)
		(0.26815642 0.09470376 0.00000000)
		(0.28491620 0.09050038 0.00000000)
		(0.30167598 0.09030044 0.00000000)
		(0.31843575 0.09410589 0.00000000)
		(0.33519553 0.10187953 0.00000000)
		(0.35195531 0.11354535 0.00000000)
		(0.36871508 0.12898931 0.00000000)
		(0.38547486 0.14806043 0.00000000)
		(0.40223464 0.17057225 0.00000000)
		(0.41899441 0.19630469 0.00000000)
		(0.43575419 0.22500618 0.00000000)
		(0.45251397 0.25639612 0.00000000)
		(0.46927374 0.29016763 0.00000000)
		(0.48603352 0.32599055 0.00000000)
		(0.50279330 0.36351466 0.00000000)
		(0.51955307 0.40237311 0.00000000)
		(0.53631285 0.44218599 0.00000000)
		(0.55307263 0.48256409 0.00000000)
		(0.56983240 0.52311265 0.00000000)
		(0.58659218 0.56343525 0.00000000)
		(0.60335196 0.60313768 0.00000000)
		(0.62011173 0.64183179 0.00000000)
		(0.63687151 0.67913930 0.00000000)
		(0.65363128 0.71469547 0.00000000)
		(0.67039106 0.74815269 0.00000000)
		(0.68715084 0.77918387 0.00000000)
		(0.70391061 0.80748563 0.00000000)
		(0.72067039 0.83278129 0.00000000)
		(0.73743017 0.85482354 0.00000000)
		(0.75418994 0.87339689 0.00000000)
		(0.77094972 0.88831976 0.00000000)
		(0.78770950 0.89944625 0.00000000)
		(0.80446927 0.90666760 0.00000000)
		(0.82122905 0.90991320 0.00000000)
		(0.83798883 0.90915132 0.00000000)
		(0.85474860 0.90438941 0.00000000)
		(0.87150838 0.89567402 0.00000000)
		(0.88826816 0.88309036 0.00000000)
		(0.90502793 0.86676146 0.00000000)
		(0.92178771 0.84684694 0.00000000)
		(0.93854749 0.82354151 0.00000000)
		(0.95530726 0.79707300 0.00000000)
		(0.97206704 0.76770018 0.00000000)
		(0.98882682 0.73571022 0.00000000)
		(1.00558659 0.70141586 0.00000000)
		(1.02234637 0.66515238 0.00000000)
		(1.03910615 0.62727429 0.00000000)
		(1.05586592 0.58815193 0.00000000)
		(1.07262570 0.54816775 0.00000000)
		(1.08938547 0.50771267 0.00000000)
		(1.10614525 0.46718218 0.00000000)
		(1.12290503 0.42697253 0.00000000)
		(1.13966480 0.38747683 0.00000000)
		(1.15642458 0.34908121 0.00000000)
		(1.17318436 0.31216102 0.00000000)
		(1.18994413 0.27707723 0.00000000)
		(1.20670391 0.24417282 0.00000000)
		(1.22346369 0.21376949 0.00000000)
		(1.24022346 0.18616445 0.00000000)
		(1.25698324 0.16162761 0.00000000)
		(1.27374302 0.14039883 0.00000000)
		(1.29050279 0.12268566 0.00000000)
		(1.30726257 0.10866126 0.00000000)
		(1.32402235 0.09846276 0.00000000)
		(1.34078212 0.09218985 0.00000000)
		(1.35754190 0.08990385 0.00000000)
		(1.37430168 0.09162713 0.00000000)
		(1.39106145 0.09734282 0.00000000)
		(1.40782123 0.10699506 0.00000000)
		(1.42458101 0.12048947 0.00000000)
		(1.44134078 0.13769413 0.00000000)
		(1.45810056 0.15844085 0.00000000)
		(1.47486034 0.18252678 0.00000000)
		(1.49162011 0.20971646 0.00000000)
		(1.50837989 0.23974408 0.00000000)
		(1.52513966 0.27231606 0.00000000)
		(1.54189944 0.30711397 0.00000000)
		(1.55865922 0.34379762 0.00000000)
		(1.57541899 0.38200836 0.00000000)
		(1.59217877 0.42137264 0.00000000)
		(1.60893855 0.46150561 0.00000000)
		(1.62569832 0.50201492 0.00000000)
		(1.64245810 0.54250453 0.00000000)
		(1.65921788 0.58257860 0.00000000)
		(1.67597765 0.62184534 0.00000000)
		(1.69273743 0.65992088 0.00000000)
		(1.70949721 0.69643296 0.00000000)
		(1.72625698 0.73102464 0.00000000)
		(1.74301676 0.76335772 0.00000000)
		(1.75977654 0.79311611 0.00000000)
		(1.77653631 0.82000888 0.00000000)
		(1.79329609 0.84377311 0.00000000)
		(1.81005587 0.86417648 0.00000000)
		(1.82681564 0.88101950 0.00000000)
		(1.84357542 0.89413753 0.00000000)
		(1.86033520 0.90340230 0.00000000)
		(1.87709497 0.90872325 0.00000000)
		(1.89385475 0.91004835 0.00000000)
		(1.91061453 0.90736465 0.00000000)
		(1.92737430 0.90069839 0.00000000)
		(1.94413408 0.89011474 0.00000000)
		(1.96089385 0.87571717 0.00000000)
		(1.97765363 0.85764643 0.00000000)
		(1.99441341 0.83607919 0.00000000)
		(2.01117318 0.81122631 0.00000000)
		(2.02793296 0.78333075 0.00000000)
		(2.04469274 0.75266523 0.00000000)
		(2.06145251 0.71952956 0.00000000)
		(2.07821229 0.68424767 0.00000000)
		(2.09497207 0.64716450 0.00000000)
		(2.11173184 0.60864260 0.00000000)
		(2.12849162 0.56905856 0.00000000)
		(2.14525140 0.52879937 0.00000000)
		(2.16201117 0.48825863 0.00000000)
		(2.17877095 0.44783268 0.00000000)
		(2.19553073 0.40791674 0.00000000)
		(2.21229050 0.36890104 0.00000000)
		(2.22905028 0.33116701 0.00000000)
		(2.24581006 0.29508357 0.00000000)
		(2.26256983 0.26100348 0.00000000)
		(2.27932961 0.22925991 0.00000000)
		(2.29608939 0.20016321 0.00000000)
		(2.31284916 0.17399783 0.00000000)
		(2.32960894 0.15101959 0.00000000)
		(2.34636872 0.13145312 0.00000000)
		(2.36312849 0.11548972 0.00000000)
		(2.37988827 0.10328544 0.00000000)
		(2.39664804 0.09495961 0.00000000)
		(2.41340782 0.09059362 0.00000000)
		(2.43016760 0.09023016 0.00000000)
		(2.44692737 0.09387277 0.00000000)
		(2.46368715 0.10148585 0.00000000)
		(2.48044693 0.11299496 0.00000000)
		(2.49720670 0.12828760 0.00000000)
		(2.51396648 0.14721424 0.00000000)
		(2.53072626 0.16958987 0.00000000)
		(2.54748603 0.19519572 0.00000000)
		(2.56424581 0.22378146 0.00000000)